
  Mrv1551110212511483D          

 75 82  0  0  0  0            999 V2000
  -16.2000    3.8500   22.1000 C   0  0  0  0  0  0  0  0  0  0  0  0
  -15.9510    4.1110   23.3990 C   0  0  0  0  0  0  0  0  0  0  0  0
  -17.4060    3.5840   21.7350 C   0  0  0  0  0  0  0  0  0  0  0  0
  -18.3760    3.7720   23.8650 C   0  0  0  0  0  0  0  0  0  0  0  0
  -18.4800    3.4950   22.4710 C   0  0  0  0  0  0  0  0  0  0  0  0
  -17.0420    4.0550   24.4020 C   0  0  0  0  0  0  0  0  0  0  0  0
  -17.8440    4.1700   26.5750 C   0  0  0  0  0  0  0  0  0  0  0  0
  -27.3910    2.9790   21.1340 C   0  0  1  0  0  0  0  0  0  0  0  0
  -27.4010    3.3510   23.6490 C   0  0  1  0  0  0  0  0  0  0  0  0
  -16.8380    4.2330   25.7000 C   0  0  0  0  0  0  0  0  0  0  0  0
  -23.6000    3.9860   23.7990 C   0  0  0  0  0  0  0  0  0  0  0  0
  -22.7610    5.0490   23.4160 C   0  0  0  0  0  0  0  0  0  0  0  0
  -24.5940    6.1450   22.6330 C   0  0  0  0  0  0  0  0  0  0  0  0
  -24.9790    4.1280   23.4350 C   0  0  0  0  0  0  0  0  0  0  0  0
  -23.0800    2.9060   24.5430 C   0  0  0  0  0  0  0  0  0  0  0  0
  -20.9220    3.7040   24.4140 C   0  0  0  0  0  0  0  0  0  0  0  0
  -21.4360    4.8800   23.7250 C   0  0  0  0  0  0  0  0  0  0  0  0
  -19.4750    3.7220   24.7810 C   0  0  0  0  0  0  0  0  0  0  0  0
  -26.4620    7.4440   21.9430 C   0  0  1  0  0  0  0  0  0  0  0  0
  -25.5030    1.5650   23.2720 C   0  0  1  0  0  0  0  0  0  0  0  0
  -26.4000    1.0930   22.1430 C   0  0  2  0  0  0  0  0  0  0  0  0
  -28.0270    2.6260   22.4770 C   0  0  2  0  0  0  0  0  0  0  0  0
  -26.3330    2.0100   20.9270 C   0  0  1  0  0  0  0  0  0  0  0  0
  -19.1750    3.9520   26.2080 C   0  0  0  0  0  0  0  0  0  0  0  0
  -26.7620    8.9730   21.6330 C   0  0  1  0  0  0  0  0  0  0  0  0
  -25.8890    9.4750   20.4410 C   0  0  1  0  0  0  0  0  0  0  0  0
  -25.4280   10.8080   20.9130 C   0  0  2  0  0  0  0  0  0  0  0  0
  -25.2760   10.7040   22.4020 C   0  0  1  0  0  0  0  0  0  0  0  0
  -27.5910   10.5150   23.2970 C   0  0  1  0  0  0  0  0  0  0  0  0
  -28.7580    9.5880   22.8080 C   0  0  1  0  0  0  0  0  0  0  0  0
  -28.2710    9.1620   21.4140 C   0  0  1  0  0  0  0  0  0  0  0  0
  -19.7700    3.0120   21.8600 C   0  0  0  0  0  0  0  0  0  0  0  0
  -20.7730    2.6270   21.3400 C   0  0  0  0  0  0  0  0  0  0  0  0
  -20.6070    5.9250   23.2620 F   0  0  0  0  0  0  0  0  0  0  0  0
  -26.4110   11.8000   20.6660 F   0  0  0  0  0  0  0  0  0  0  0  0
  -17.5780    3.3130   20.3620 F   0  0  0  0  0  0  0  0  0  0  0  0
  -23.2750    6.1260   22.8100 N   0  0  0  0  0  0  0  0  0  0  0  0
  -25.4800    5.2450   22.9540 N   0  0  0  0  0  0  0  0  0  0  0  0
  -21.7520    2.8230   24.8790 N   0  0  0  0  0  0  0  0  0  0  0  0
  -25.8850    3.0470   23.6810 N   0  0  0  0  0  0  0  0  0  0  0  0
  -27.8120    1.1750   22.5540 N   0  0  0  0  0  0  0  0  0  0  0  0
  -26.4130    9.7850   22.8110 N   0  0  1  0  0  0  0  0  0  0  0  0
  -25.0750    7.3570   22.1480 O   0  0  0  0  0  0  0  0  0  0  0  0
  -17.7450    4.2710   27.9690 O   0  0  0  0  0  0  0  0  0  0  0  0
  -15.4199    3.8541   21.3387 H   0  0  0  0  0  0  0  0  0  0  0  0
  -14.9140    4.3563   23.6281 H   0  0  0  0  0  0  0  0  0  0  0  0
  -28.1288    2.8090   20.3498 H   0  0  0  0  0  0  0  0  0  0  0  0
  -26.9097    3.9525   21.2277 H   0  0  0  0  0  0  0  0  0  0  0  0
  -27.5123    4.4167   23.4488 H   0  0  0  0  0  0  0  0  0  0  0  0
  -27.8362    2.9172   24.5493 H   0  0  0  0  0  0  0  0  0  0  0  0
  -15.8268    4.4344   26.0535 H   0  0  0  0  0  0  0  0  0  0  0  0
  -23.7340    2.0990   24.8733 H   0  0  0  0  0  0  0  0  0  0  0  0
  -26.9155    7.1716   22.8960 H   0  0  0  0  0  0  0  0  0  0  0  0
  -26.6635    6.8475   21.0533 H   0  0  0  0  0  0  0  0  0  0  0  0
  -25.7300    0.9226   24.1228 H   0  0  0  0  0  0  0  0  0  0  0  0
  -24.4935    1.5894   22.8616 H   0  0  0  0  0  0  0  0  0  0  0  0
  -26.0893    0.0727   21.9183 H   0  0  0  0  0  0  0  0  0  0  0  0
  -29.0818    2.8924   22.5441 H   0  0  0  0  0  0  0  0  0  0  0  0
  -26.5997    1.4320   20.0422 H   0  0  0  0  0  0  0  0  0  0  0  0
  -25.3905    2.5568   20.9571 H   0  0  0  0  0  0  0  0  0  0  0  0
  -19.9350    3.9608   26.9893 H   0  0  0  0  0  0  0  0  0  0  0  0
  -25.0100    8.8364   20.3536 H   0  0  0  0  0  0  0  0  0  0  0  0
  -26.5323    9.6381   19.5763 H   0  0  0  0  0  0  0  0  0  0  0  0
  -24.5301   11.1172   20.3779 H   0  0  0  0  0  0  0  0  0  0  0  0
  -24.3350   10.1936   22.6070 H   0  0  0  0  0  0  0  0  0  0  0  0
  -25.4652   11.6898   22.8269 H   0  0  0  0  0  0  0  0  0  0  0  0
  -27.6332   11.4628   22.7604 H   0  0  0  0  0  0  0  0  0  0  0  0
  -27.5550   10.5066   24.3864 H   0  0  0  0  0  0  0  0  0  0  0  0
  -28.7859    8.7010   23.4408 H   0  0  0  0  0  0  0  0  0  0  0  0
  -29.6543   10.1951   22.6808 H   0  0  0  0  0  0  0  0  0  0  0  0
  -28.4144    9.9998   20.7316 H   0  0  0  0  0  0  0  0  0  0  0  0
  -28.7065    8.1900   21.1826 H   0  0  0  0  0  0  0  0  0  0  0  0
  -21.6890    2.2754   20.8651 H   0  0  0  0  0  0  0  0  0  0  0  0
  -28.4541    0.4406   22.8158 H   0  0  0  0  0  0  0  0  0  0  0  0
  -17.7178    3.3913   28.3524 H   0  0  0  0  0  0  0  0  0  0  0  0
  1  2  4  0  0  0  0
  1  3  4  0  0  0  0
  2  6  4  0  0  0  0
  3  5  4  0  0  0  0
  3 36  1  0  0  0  0
  4  5  4  0  0  0  0
  4  6  4  0  0  0  0
  4 18  4  0  0  0  0
  5 32  1  0  0  0  0
  6 10  4  0  0  0  0
  7 10  4  0  0  0  0
  7 24  4  0  0  0  0
  7 44  1  0  0  0  0
  8 22  1  0  0  0  0
  8 23  1  0  0  0  0
  9 22  1  0  0  0  0
  9 40  1  0  0  0  0
 11 12  4  0  0  0  0
 11 14  4  0  0  0  0
 11 15  4  0  0  0  0
 12 17  4  0  0  0  0
 12 37  4  0  0  0  0
 13 37  4  0  0  0  0
 13 38  4  0  0  0  0
 13 43  1  0  0  0  0
 14 38  4  0  0  0  0
 14 40  1  0  0  0  0
 15 39  4  0  0  0  0
 16 17  4  0  0  0  0
 16 18  1  0  0  0  0
 16 39  4  0  0  0  0
 17 34  1  0  0  0  0
 18 24  4  0  0  0  0
 19 25  1  0  0  0  0
 19 43  1  0  0  0  0
 20 21  1  0  0  0  0
 20 40  1  0  0  0  0
 21 23  1  0  0  0  0
 21 41  1  0  0  0  0
 22 41  1  0  0  0  0
 25 26  1  0  0  0  0
 25 31  1  0  0  0  0
 25 42  1  0  0  0  0
 26 27  1  0  0  0  0
 27 28  1  0  0  0  0
 27 35  1  0  0  0  0
 28 42  1  0  0  0  0
 29 30  1  0  0  0  0
 29 42  1  0  0  0  0
 30 31  1  0  0  0  0
 32 33  3  0  0  0  0
  1 45  1  0  0  0  0
  2 46  1  0  0  0  0
  8 47  1  0  0  0  0
  8 48  1  0  0  0  0
  9 49  1  0  0  0  0
  9 50  1  0  0  0  0
 10 51  1  0  0  0  0
 15 52  1  0  0  0  0
 19 53  1  0  0  0  0
 19 54  1  0  0  0  0
 20 55  1  0  0  0  0
 20 56  1  0  0  0  0
 21 57  1  0  0  0  0
 22 58  1  0  0  0  0
 23 59  1  0  0  0  0
 23 60  1  0  0  0  0
 24 61  1  0  0  0  0
 26 62  1  0  0  0  0
 26 63  1  0  0  0  0
 27 64  1  0  0  0  0
 28 65  1  0  0  0  0
 28 66  1  0  0  0  0
 29 67  1  0  0  0  0
 29 68  1  0  0  0  0
 30 69  1  0  0  0  0
 30 70  1  0  0  0  0
 31 71  1  0  0  0  0
 31 72  1  0  0  0  0
 33 73  1  0  0  0  0
 41 74  1  0  0  0  0
 44 75  1  0  0  0  0
M  END
>  <Resolution>
1.27

$$$$
