
  Mrv1551112032523323D          

 74 80  0  0  1  0            999 V2000
    1.6981   -0.4192   -0.1188 C   0  0  0  0  0  0  0  0  0  0  0  0
    0.2660   -0.3541   -0.0340 O   0  0  0  0  0  0  0  0  0  0  0  0
   -0.1949    0.3701    1.0324 C   0  0  0  0  0  0  0  0  0  0  0  0
   -0.4037    1.7581    0.9307 C   0  0  0  0  0  0  0  0  0  0  0  0
   -0.9721    2.5327    2.0188 C   0  0  0  0  0  0  0  0  0  0  0  0
   -1.2594    1.8282    3.2220 C   0  0  0  0  0  0  0  0  0  0  0  0
   -1.7772    2.4689    4.3264 O   0  0  0  0  0  0  0  0  0  0  0  0
   -0.8143    2.8784    5.3244 C   0  0  1  0  0  0  0  0  0  0  0  0
   -0.2108    1.8119    5.9455 F   0  0  0  0  0  0  0  0  0  0  0  0
    0.1560    3.7166    4.8292 F   0  0  0  0  0  0  0  0  0  0  0  0
   -1.4907    3.5740    6.2934 F   0  0  0  0  0  0  0  0  0  0  0  0
   -1.0443    0.4364    3.3130 C   0  0  0  0  0  0  0  0  0  0  0  0
   -0.5260   -0.2854    2.2286 C   0  0  0  0  0  0  0  0  0  0  0  0
   -1.2921    3.9656    2.0137 C   0  0  0  0  0  0  0  0  0  0  0  0
   -2.5631    4.4865    2.2768 N   0  0  0  0  0  0  0  0  0  0  0  0
   -3.0208    5.8137    2.3109 C   0  0  0  0  0  0  0  0  0  0  0  0
   -2.0758    6.8537    2.1032 C   0  0  0  0  0  0  0  0  0  0  0  0
   -2.3676    8.2570    2.1707 C   0  0  0  0  0  0  0  0  0  0  0  0
   -1.3439    9.1233    1.9130 N   0  0  0  0  0  0  0  0  0  0  0  0
   -0.0847    8.7429    1.5956 C   0  0  0  0  0  0  0  0  0  0  0  0
    0.8962    9.6568    1.3381 O   0  0  0  0  0  0  0  0  0  0  0  0
    1.1139    9.8377   -0.0773 C   0  0  1  0  0  0  0  0  0  0  0  0
    2.3906   10.6921   -0.3490 C   0  0  1  0  0  0  0  0  0  0  0  0
    3.6975    9.9294    0.0327 C   0  0  2  0  0  0  0  0  0  0  0  0
    4.1222    9.2228   -1.2612 C   0  0  2  0  0  0  0  0  0  0  0  0
    3.7127   10.2413   -2.3342 C   0  0  2  0  0  0  0  0  0  0  0  0
    2.4788   10.8964   -1.8240 N   0  0  2  0  0  0  0  0  0  0  0  0
    2.3437   12.3479   -2.0980 C   0  0  2  0  0  0  0  0  0  0  0  0
    2.8244   13.0523   -0.8168 C   0  0  2  0  0  0  0  0  0  0  0  0
    4.1992   13.1566   -0.7896 F   0  0  0  0  0  0  0  0  0  0  0  0
    2.3055   12.1146    0.2871 C   0  0  1  0  0  0  0  0  0  0  0  0
    0.2018    7.4252    1.5431 N   0  0  0  0  0  0  0  0  0  0  0  0
   -0.7301    6.4742    1.7837 C   0  0  0  0  0  0  0  0  0  0  0  0
   -0.3533    5.0650    1.7158 C   0  0  0  0  0  0  0  0  0  0  0  0
    0.9417    4.8716    1.3635 F   0  0  0  0  0  0  0  0  0  0  0  0
   -3.5982    8.8419    2.4722 N   0  0  0  0  0  0  0  0  0  0  0  0
   -4.4696    8.3360    3.5230 C   0  0  1  0  0  0  0  0  0  0  0  0
   -5.1660    9.4686    4.3362 C   0  0  1  0  0  0  0  0  0  0  0  0
   -4.1825   10.4390    5.0273 C   0  0  1  0  0  0  0  0  0  0  0  0
   -3.8780   11.4913    3.9379 C   0  0  1  0  0  0  0  0  0  0  0  0
   -4.7532   11.0529    2.7363 C   0  0  1  0  0  0  0  0  0  0  0  0
   -4.0541   10.0416    1.7720 C   0  0  1  0  0  0  0  0  0  0  0  0
   -5.8715   10.3404    3.3796 N   0  0  2  0  0  0  0  0  0  0  0  0
    2.1467   -0.7593    0.8186 H   0  0  0  0  0  0  0  0  0  0  0  0
    1.9520   -1.1395   -0.8989 H   0  0  0  0  0  0  0  0  0  0  0  0
    2.1134    0.5521   -0.3970 H   0  0  0  0  0  0  0  0  0  0  0  0
   -0.1675    2.2357    0.0592 H   0  0  0  0  0  0  0  0  0  0  0  0
   -1.2656   -0.0590    4.1787 H   0  0  0  0  0  0  0  0  0  0  0  0
   -0.3891   -1.2929    2.3123 H   0  0  0  0  0  0  0  0  0  0  0  0
   -4.0067    5.9697    2.4736 H   0  0  0  0  0  0  0  0  0  0  0  0
    1.2310    8.8742   -0.5873 H   0  0  0  0  0  0  0  0  0  0  0  0
    0.2441   10.3414   -0.5112 H   0  0  0  0  0  0  0  0  0  0  0  0
    3.5575    9.2173    0.8492 H   0  0  0  0  0  0  0  0  0  0  0  0
    4.4912   10.6218    0.3244 H   0  0  0  0  0  0  0  0  0  0  0  0
    3.5751    8.2833   -1.3871 H   0  0  0  0  0  0  0  0  0  0  0  0
    5.1985    9.0216   -1.2840 H   0  0  0  0  0  0  0  0  0  0  0  0
    3.5079    9.7466   -3.2858 H   0  0  0  0  0  0  0  0  0  0  0  0
    4.5330   10.9514   -2.4779 H   0  0  0  0  0  0  0  0  0  0  0  0
    1.2849   12.5686   -2.2636 H   0  0  0  0  0  0  0  0  0  0  0  0
    2.8981   12.6792   -2.9804 H   0  0  0  0  0  0  0  0  0  0  0  0
    2.4002   14.0555   -0.7287 H   0  0  0  0  0  0  0  0  0  0  0  0
    1.2719   12.3875    0.5225 H   0  0  0  0  0  0  0  0  0  0  0  0
    2.8917   12.2079    1.2056 H   0  0  0  0  0  0  0  0  0  0  0  0
   -5.2636    7.7470    3.0575 H   0  0  0  0  0  0  0  0  0  0  0  0
   -3.9262    7.6944    4.2199 H   0  0  0  0  0  0  0  0  0  0  0  0
   -5.8686    9.0348    5.0532 H   0  0  0  0  0  0  0  0  0  0  0  0
   -4.6740   10.9106    5.8833 H   0  0  0  0  0  0  0  0  0  0  0  0
   -3.2793    9.9304    5.3753 H   0  0  0  0  0  0  0  0  0  0  0  0
   -4.1805   12.4857    4.2797 H   0  0  0  0  0  0  0  0  0  0  0  0
   -2.8136   11.5128    3.6858 H   0  0  0  0  0  0  0  0  0  0  0  0
   -5.1215   11.9170    2.1739 H   0  0  0  0  0  0  0  0  0  0  0  0
   -3.2536   10.5705    1.2501 H   0  0  0  0  0  0  0  0  0  0  0  0
   -4.7726    9.7353    1.0068 H   0  0  0  0  0  0  0  0  0  0  0  0
   -6.3937   11.0280    3.9283 H   0  0  0  0  0  0  0  0  0  0  0  0
  1  2  1  0  0  0  0
  2  3  1  0  0  0  0
  3  4  2  0  0  0  0
  4  5  1  0  0  0  0
  5  6  2  0  0  0  0
  6  7  1  0  0  0  0
  7  8  1  0  0  0  0
  8  9  1  0  0  0  0
  8 10  1  0  0  0  0
  8 11  1  0  0  0  0
  6 12  1  0  0  0  0
 12 13  2  0  0  0  0
  3 13  1  0  0  0  0
  5 14  1  0  0  0  0
 14 15  2  0  0  0  0
 15 16  1  0  0  0  0
 16 17  2  0  0  0  0
 17 18  1  0  0  0  0
 18 19  2  0  0  0  0
 19 20  1  0  0  0  0
 20 21  1  0  0  0  0
 21 22  1  0  0  0  0
 23 22  1  0  0  0  0
 23 24  1  0  0  0  0
 24 25  1  0  0  0  0
 25 26  1  0  0  0  0
 26 27  1  0  0  0  0
 23 27  1  0  0  0  0
 27 28  1  0  0  0  0
 28 29  1  0  0  0  0
 29 30  1  0  0  0  0
 29 31  1  0  0  0  0
 23 31  1  0  0  0  0
 20 32  2  0  0  0  0
 32 33  1  0  0  0  0
 17 33  1  0  0  0  0
 33 34  2  0  0  0  0
 14 34  1  0  0  0  0
 34 35  1  0  0  0  0
 18 36  1  0  0  0  0
 36 37  1  0  0  0  0
 37 38  1  0  0  0  0
 38 39  1  0  0  0  0
 39 40  1  0  0  0  0
 40 41  1  0  0  0  0
 41 42  1  0  0  0  0
 36 42  1  0  0  0  0
 41 43  1  0  0  0  0
 38 43  1  0  0  0  0
  1 44  1  0  0  0  0
  1 45  1  0  0  0  0
  1 46  1  0  0  0  0
  4 47  1  0  0  0  0
 12 48  1  0  0  0  0
 13 49  1  0  0  0  0
 16 50  1  0  0  0  0
 22 51  1  0  0  0  0
 22 52  1  0  0  0  0
 24 53  1  0  0  0  0
 24 54  1  0  0  0  0
 25 55  1  0  0  0  0
 25 56  1  0  0  0  0
 26 57  1  0  0  0  0
 26 58  1  0  0  0  0
 28 59  1  0  0  0  0
 28 60  1  0  0  0  0
 29 61  1  0  0  0  0
 31 62  1  0  0  0  0
 31 63  1  0  0  0  0
 37 64  1  0  0  0  0
 37 65  1  0  0  0  0
 38 66  1  0  0  0  0
 39 67  1  0  0  0  0
 39 68  1  0  0  0  0
 40 69  1  0  0  0  0
 40 70  1  0  0  0  0
 41 71  1  0  0  0  0
 42 72  1  0  0  0  0
 42 73  1  0  0  0  0
 43 74  1  0  0  0  0
M  END
$$$$
