
  Mrv1551110202518333D          

 61 65  0  0  1  0            999 V2000
   -5.7631    0.5658    5.7566 F   0  0  0  0  0  0  0  0  0  0  0  0
   -6.7806    0.9438    6.4800 C   0  0  0  0  0  0  0  0  0  0  0  0
   -7.7273    1.7241    5.7995 C   0  0  0  0  0  0  0  0  0  0  0  0
   -8.8849    2.1291    6.4635 C   0  0  0  0  0  0  0  0  0  0  0  0
   -9.5827    2.6607    5.9346 H   0  0  0  0  0  0  0  0  0  0  0  0
   -9.1031    1.8159    7.8216 C   0  0  0  0  0  0  0  0  0  0  0  0
   -8.0961    1.1045    8.5640 C   0  0  0  0  0  0  0  0  0  0  0  0
   -6.9347    0.6024    7.8572 C   0  0  0  0  0  0  0  0  0  0  0  0
   -5.8889   -0.2598    8.5502 C   0  0  2  0  0  0  0  0  0  0  0  0
   -6.4445   -0.9044    9.2323 H   0  0  0  0  0  0  0  0  0  0  0  0
   -5.0010    0.5347    9.3701 O   0  0  0  0  0  0  0  0  0  0  0  0
   -4.0142    1.3146    8.6653 C   0  0  1  0  0  0  0  0  0  0  0  0
   -4.4877    2.1974    8.2300 H   0  0  0  0  0  0  0  0  0  0  0  0
   -3.2941    1.6496    9.4144 H   0  0  0  0  0  0  0  0  0  0  0  0
   -3.2995    0.5519    7.6098 C   0  0  0  0  0  0  0  0  0  0  0  0
   -3.7746   -0.7225    7.2102 C   0  0  0  0  0  0  0  0  0  0  0  0
   -3.1158   -1.4192    6.2486 N   0  0  0  0  0  0  0  0  0  0  0  0
   -2.0284   -0.9125    5.6201 C   0  0  0  0  0  0  0  0  0  0  0  0
   -1.4202   -1.6246    4.6306 O   0  0  0  0  0  0  0  0  0  0  0  0
   -1.9362   -1.2862    3.3250 C   0  0  1  0  0  0  0  0  0  0  0  0
   -2.9988   -1.5557    3.2771 H   0  0  0  0  0  0  0  0  0  0  0  0
   -1.8480   -0.2073    3.1466 H   0  0  0  0  0  0  0  0  0  0  0  0
   -1.1767   -2.0318    2.1798 C   0  0  1  0  0  0  0  0  0  0  0  0
   -1.3620   -3.5043    2.3385 N   0  0  1  0  0  0  0  0  0  0  0  0
   -2.0370   -4.0147    1.1136 C   0  0  2  0  0  0  0  0  0  0  0  0
   -3.1124   -4.0546    1.3113 H   0  0  0  0  0  0  0  0  0  0  0  0
   -1.7129   -5.0153    0.8092 H   0  0  0  0  0  0  0  0  0  0  0  0
   -1.7540   -2.9793    0.0126 C   0  0  1  0  0  0  0  0  0  0  0  0
   -0.7659   -3.1413   -0.4291 H   0  0  0  0  0  0  0  0  0  0  0  0
   -2.5111   -3.0055   -0.7740 H   0  0  0  0  0  0  0  0  0  0  0  0
   -1.7823   -1.6585    0.7891 C   0  0  2  0  0  0  0  0  0  0  0  0
   -1.2256   -0.8692    0.2765 H   0  0  0  0  0  0  0  0  0  0  0  0
   -2.8236   -1.3304    0.8725 H   0  0  0  0  0  0  0  0  0  0  0  0
   -0.0526   -4.1296    2.6810 C   0  0  2  0  0  0  0  0  0  0  0  0
    0.3682   -4.6929    1.8394 H   0  0  0  0  0  0  0  0  0  0  0  0
   -0.1857   -4.8107    3.5269 H   0  0  0  0  0  0  0  0  0  0  0  0
    0.9043   -2.9831    3.0555 C   0  0  1  0  0  0  0  0  0  0  0  0
    2.2169   -3.2739    2.7589 F   0  0  0  0  0  0  0  0  0  0  0  0
    0.8390   -2.7591    4.1231 H   0  0  0  0  0  0  0  0  0  0  0  0
    0.3663   -1.8046    2.2330 C   0  0  1  0  0  0  0  0  0  0  0  0
    0.8058   -1.8496    1.2319 H   0  0  0  0  0  0  0  0  0  0  0  0
    0.6357   -0.8437    2.6779 H   0  0  0  0  0  0  0  0  0  0  0  0
   -1.5677    0.3151    5.9672 N   0  0  0  0  0  0  0  0  0  0  0  0
   -2.1635    1.0590    6.9347 C   0  0  0  0  0  0  0  0  0  0  0  0
   -1.6433    2.2729    7.2079 N   0  0  0  0  0  0  0  0  0  0  0  0
   -2.0427    2.8364    7.8924 H   0  0  0  0  0  0  0  0  0  0  0  0
   -0.8673    2.5924    6.7192 H   0  0  0  0  0  0  0  0  0  0  0  0
   -5.0230   -1.2984    7.7632 C   0  0  2  0  0  0  0  0  0  0  0  0
   -5.6274   -1.7433    6.9676 H   0  0  0  0  0  0  0  0  0  0  0  0
   -4.7245   -2.1084    8.4360 H   0  0  0  0  0  0  0  0  0  0  0  0
   -8.3075    0.8305   10.0422 C   0  0  1  0  0  0  0  0  0  0  0  0
   -7.1770    0.8800   10.8148 F   0  0  0  0  0  0  0  0  0  0  0  0
   -9.0812    1.7256   10.7349 F   0  0  0  0  0  0  0  0  0  0  0  0
   -8.8912   -0.4006   10.1990 F   0  0  0  0  0  0  0  0  0  0  0  0
  -10.4228    2.2466    8.3788 C   0  0  0  0  0  0  0  0  0  0  0  0
  -10.2790    3.0613    9.0889 H   0  0  0  0  0  0  0  0  0  0  0  0
  -10.9094    1.4050    8.8752 H   0  0  0  0  0  0  0  0  0  0  0  0
  -11.1203    2.6118    7.6207 H   0  0  0  0  0  0  0  0  0  0  0  0
   -7.5508    2.0827    4.5080 N   0  0  0  0  0  0  0  0  0  0  0  0
   -6.7483    1.8109    4.0336 H   0  0  0  0  0  0  0  0  0  0  0  0
   -8.2226    2.6159    4.0544 H   0  0  0  0  0  0  0  0  0  0  0  0
  1  2  1  0  0  0  0
  2  3  4  0  0  0  0
  3  4  4  0  0  0  0
  4  5  1  0  0  0  0
  4  6  4  0  0  0  0
  6  7  4  0  0  0  0
  7  8  4  0  0  0  0
  2  8  4  0  0  0  0
  9  8  1  0  0  0  0
  9 10  1  0  0  0  0
  9 11  1  0  0  0  0
 11 12  1  0  0  0  0
 12 13  1  0  0  0  0
 12 14  1  0  0  0  0
 12 15  1  0  0  0  0
 15 16  4  0  0  0  0
 16 17  4  0  0  0  0
 17 18  4  0  0  0  0
 18 19  1  0  0  0  0
 19 20  1  0  0  0  0
 20 21  1  0  0  0  0
 20 22  1  0  0  0  0
 23 20  1  0  0  0  0
 23 24  1  0  0  0  0
 24 25  1  0  0  0  0
 25 26  1  0  0  0  0
 25 27  1  0  0  0  0
 25 28  1  0  0  0  0
 28 29  1  0  0  0  0
 28 30  1  0  0  0  0
 28 31  1  0  0  0  0
 23 31  1  0  0  0  0
 31 32  1  0  0  0  0
 31 33  1  0  0  0  0
 24 34  1  0  0  0  0
 34 35  1  0  0  0  0
 34 36  1  0  0  0  0
 34 37  1  0  0  0  0
 37 38  1  0  0  0  0
 37 39  1  0  0  0  0
 37 40  1  0  0  0  0
 23 40  1  0  0  0  0
 40 41  1  0  0  0  0
 40 42  1  0  0  0  0
 18 43  4  0  0  0  0
 43 44  4  0  0  0  0
 15 44  4  0  0  0  0
 44 45  1  0  0  0  0
 45 46  1  0  0  0  0
 45 47  1  0  0  0  0
 16 48  1  0  0  0  0
  9 48  1  0  0  0  0
 48 49  1  0  0  0  0
 48 50  1  0  0  0  0
  7 51  1  0  0  0  0
 51 52  1  0  0  0  0
 51 53  1  0  0  0  0
 51 54  1  0  0  0  0
  6 55  1  0  0  0  0
 55 56  1  0  0  0  0
 55 57  1  0  0  0  0
 55 58  1  0  0  0  0
  3 59  1  0  0  0  0
 59 60  1  0  0  0  0
 59 61  1  0  0  0  0
M  END
$$$$
