
  Mrv1551112032523493D          

 69 75  0  0  1  0            999 V2000
    5.7821   11.8719    2.5859 O   0  0  0  0  0  0  0  0  0  0  0  0
    6.2850   10.9530    3.4441 C   0  0  0  0  0  0  0  0  0  0  0  0
    6.5032    9.6287    3.0202 C   0  0  0  0  0  0  0  0  0  0  0  0
    7.0695    8.6666    3.8924 C   0  0  0  0  0  0  0  0  0  0  0  0
    7.3881    9.0642    5.2263 C   0  0  0  0  0  0  0  0  0  0  0  0
    7.1385   10.3907    5.6508 C   0  0  0  0  0  0  0  0  0  0  0  0
    6.5992   11.3329    4.7591 C   0  0  0  0  0  0  0  0  0  0  0  0
    7.9035    8.2287    6.0948 C   0  0  0  0  0  0  0  0  0  0  0  0
    8.3793    7.4430    6.8586 C   0  0  0  0  0  0  0  0  0  0  0  0
    7.3373    7.3499    3.4065 C   0  0  0  0  0  0  0  0  0  0  0  0
    8.5984    6.8748    3.5595 N   0  0  0  0  0  0  0  0  0  0  0  0
    9.0105    5.6469    3.1682 C   0  0  0  0  0  0  0  0  0  0  0  0
    8.1245    4.7578    2.5149 C   0  0  0  0  0  0  0  0  0  0  0  0
    6.7704    5.2022    2.4049 C   0  0  0  0  0  0  0  0  0  0  0  0
    6.3789    6.4980    2.8149 C   0  0  0  0  0  0  0  0  0  0  0  0
    5.1380    6.8889    2.6715 F   0  0  0  0  0  0  0  0  0  0  0  0
    5.8254    4.3592    1.9214 N   0  0  0  0  0  0  0  0  0  0  0  0
    6.1232    3.1075    1.5139 C   0  0  0  0  0  0  0  0  0  0  0  0
    7.4159    2.7098    1.5311 N   0  0  0  0  0  0  0  0  0  0  0  0
    8.4571    3.4625    1.9955 C   0  0  0  0  0  0  0  0  0  0  0  0
    9.7304    2.8794    1.9072 N   0  0  0  0  0  0  0  0  0  0  0  0
    9.8964    1.4334    2.0526 C   0  0  1  0  0  0  0  0  0  0  0  0
   11.0938    0.8626    1.2278 C   0  0  1  0  0  0  0  0  0  0  0  0
   10.9916    1.1005   -0.3000 C   0  0  1  0  0  0  0  0  0  0  0  0
   11.6456    2.4809   -0.5177 C   0  0  1  0  0  0  0  0  0  0  0  0
   12.0599    2.9082    0.9064 C   0  0  1  0  0  0  0  0  0  0  0  0
   10.9466    3.6585    1.6996 C   0  0  1  0  0  0  0  0  0  0  0  0
   12.3003    1.6254    1.5921 N   0  0  2  0  0  0  0  0  0  0  0  0
    5.1439    2.2754    1.0620 O   0  0  0  0  0  0  0  0  0  0  0  0
    4.4797    1.5326    2.1088 C   0  0  1  0  0  0  0  0  0  0  0  0
    3.4313    0.5543    1.4792 C   0  0  1  0  0  0  0  0  0  0  0  0
    4.1167   -0.4725    0.5263 C   0  0  2  0  0  0  0  0  0  0  0  0
    4.4890   -1.6425    1.4421 C   0  0  2  0  0  0  0  0  0  0  0  0
    3.3275   -1.6739    2.4461 C   0  0  2  0  0  0  0  0  0  0  0  0
    2.8100   -0.2811    2.5483 N   0  0  2  0  0  0  0  0  0  0  0  0
    1.3295   -0.1240    2.5025 C   0  0  2  0  0  0  0  0  0  0  0  0
    0.9976    0.4982    1.1356 C   0  0  1  0  0  0  0  0  0  0  0  0
    2.2542    1.3214    0.8057 C   0  0  1  0  0  0  0  0  0  0  0  0
    0.7732   -0.4799    0.1906 F   0  0  0  0  0  0  0  0  0  0  0  0
    6.5618   12.1992    2.0890 H   0  0  0  0  0  0  0  0  0  0  0  0
    6.2627    9.3784    2.0564 H   0  0  0  0  0  0  0  0  0  0  0  0
    7.3497   10.6901    6.6091 H   0  0  0  0  0  0  0  0  0  0  0  0
    6.4419   12.2963    5.0676 H   0  0  0  0  0  0  0  0  0  0  0  0
    8.7519    6.8301    7.4378 H   0  0  0  0  0  0  0  0  0  0  0  0
    9.9686    5.4026    3.3901 H   0  0  0  0  0  0  0  0  0  0  0  0
   10.0708    1.2281    3.1108 H   0  0  0  0  0  0  0  0  0  0  0  0
    9.0101    0.8656    1.7614 H   0  0  0  0  0  0  0  0  0  0  0  0
   11.2325   -0.1988    1.4554 H   0  0  0  0  0  0  0  0  0  0  0  0
   11.5639    0.3342   -0.8304 H   0  0  0  0  0  0  0  0  0  0  0  0
    9.9600    1.0804   -0.6561 H   0  0  0  0  0  0  0  0  0  0  0  0
   12.5322    2.3853   -1.1542 H   0  0  0  0  0  0  0  0  0  0  0  0
   10.9595    3.1975   -0.9763 H   0  0  0  0  0  0  0  0  0  0  0  0
   12.9771    3.5045    0.8866 H   0  0  0  0  0  0  0  0  0  0  0  0
   10.7374    4.6023    1.1868 H   0  0  0  0  0  0  0  0  0  0  0  0
   11.3837    3.8724    2.6767 H   0  0  0  0  0  0  0  0  0  0  0  0
   13.0923    1.1737    1.1227 H   0  0  0  0  0  0  0  0  0  0  0  0
    5.2091    0.9578    2.6891 H   0  0  0  0  0  0  0  0  0  0  0  0
    3.9717    2.2155    2.7993 H   0  0  0  0  0  0  0  0  0  0  0  0
    5.0017   -0.0706    0.0266 H   0  0  0  0  0  0  0  0  0  0  0  0
    3.4236   -0.8268   -0.2422 H   0  0  0  0  0  0  0  0  0  0  0  0
    5.4345   -1.4393    1.9531 H   0  0  0  0  0  0  0  0  0  0  0  0
    4.5732   -2.5808    0.8871 H   0  0  0  0  0  0  0  0  0  0  0  0
    3.6750   -2.0042    3.4271 H   0  0  0  0  0  0  0  0  0  0  0  0
    2.5721   -2.3814    2.0887 H   0  0  0  0  0  0  0  0  0  0  0  0
    1.0354    0.5613    3.3018 H   0  0  0  0  0  0  0  0  0  0  0  0
    0.7761   -1.0569    2.6527 H   0  0  0  0  0  0  0  0  0  0  0  0
    0.1110    1.1351    1.1961 H   0  0  0  0  0  0  0  0  0  0  0  0
    2.1387    2.3215    1.2339 H   0  0  0  0  0  0  0  0  0  0  0  0
    2.3932    1.4365   -0.2716 H   0  0  0  0  0  0  0  0  0  0  0  0
  1  2  1  0  0  0  0
  2  3  2  0  0  0  0
  3  4  1  0  0  0  0
  4  5  2  0  0  0  0
  5  6  1  0  0  0  0
  6  7  2  0  0  0  0
  2  7  1  0  0  0  0
  5  8  1  0  0  0  0
  8  9  3  0  0  0  0
  4 10  1  0  0  0  0
 10 11  2  0  0  0  0
 11 12  1  0  0  0  0
 12 13  2  0  0  0  0
 13 14  1  0  0  0  0
 14 15  2  0  0  0  0
 10 15  1  0  0  0  0
 15 16  1  0  0  0  0
 14 17  1  0  0  0  0
 17 18  2  0  0  0  0
 18 19  1  0  0  0  0
 19 20  2  0  0  0  0
 13 20  1  0  0  0  0
 20 21  1  0  0  0  0
 21 22  1  0  0  0  0
 22 23  1  0  0  0  0
 23 24  1  0  0  0  0
 24 25  1  0  0  0  0
 25 26  1  0  0  0  0
 26 27  1  0  0  0  0
 21 27  1  0  0  0  0
 26 28  1  0  0  0  0
 23 28  1  0  0  0  0
 18 29  1  0  0  0  0
 29 30  1  0  0  0  0
 31 30  1  0  0  0  0
 31 32  1  0  0  0  0
 32 33  1  0  0  0  0
 33 34  1  0  0  0  0
 34 35  1  0  0  0  0
 31 35  1  0  0  0  0
 35 36  1  0  0  0  0
 36 37  1  0  0  0  0
 37 38  1  0  0  0  0
 31 38  1  0  0  0  0
 37 39  1  0  0  0  0
  1 40  1  0  0  0  0
  3 41  1  0  0  0  0
  6 42  1  0  0  0  0
  7 43  1  0  0  0  0
  9 44  1  0  0  0  0
 12 45  1  0  0  0  0
 22 46  1  0  0  0  0
 22 47  1  0  0  0  0
 23 48  1  0  0  0  0
 24 49  1  0  0  0  0
 24 50  1  0  0  0  0
 25 51  1  0  0  0  0
 25 52  1  0  0  0  0
 26 53  1  0  0  0  0
 27 54  1  0  0  0  0
 27 55  1  0  0  0  0
 28 56  1  0  0  0  0
 30 57  1  0  0  0  0
 30 58  1  0  0  0  0
 32 59  1  0  0  0  0
 32 60  1  0  0  0  0
 33 61  1  0  0  0  0
 33 62  1  0  0  0  0
 34 63  1  0  0  0  0
 34 64  1  0  0  0  0
 36 65  1  0  0  0  0
 36 66  1  0  0  0  0
 37 67  1  0  0  0  0
 38 68  1  0  0  0  0
 38 69  1  0  0  0  0
M  END
$$$$
