
  Mrv1551110212511143D          

 69 75  0  0  1  0            999 V2000
   11.3617   -1.5864    2.2790 O   0  0  0  0  0  0  0  0  0  0  0  0
   10.7917   -1.1101    3.4099 C   0  0  0  0  0  0  0  0  0  0  0  0
    9.3988   -1.1974    3.5951 C   0  0  0  0  0  0  0  0  0  0  0  0
    8.7971   -0.7508    4.7969 C   0  0  0  0  0  0  0  0  0  0  0  0
    9.6254   -0.1739    5.8056 C   0  0  0  0  0  0  0  0  0  0  0  0
   11.0201   -0.0671    5.5968 C   0  0  0  0  0  0  0  0  0  0  0  0
   11.5995   -0.5420    4.4084 C   0  0  0  0  0  0  0  0  0  0  0  0
    9.1393    0.2753    6.9368 C   0  0  0  0  0  0  0  0  0  0  0  0
    8.6900    0.6782    7.9668 C   0  0  0  0  0  0  0  0  0  0  0  0
    7.3956   -0.9291    4.9793 C   0  0  0  0  0  0  0  0  0  0  0  0
    6.9986   -1.7563    5.9782 N   0  0  0  0  0  0  0  0  0  0  0  0
    5.7025   -1.9710    6.3098 C   0  0  0  0  0  0  0  0  0  0  0  0
    4.6541   -1.2957    5.6418 C   0  0  0  0  0  0  0  0  0  0  0  0
    3.2619   -1.3710    5.9721 C   0  0  0  0  0  0  0  0  0  0  0  0
    2.3986   -0.7532    5.1165 N   0  0  0  0  0  0  0  0  0  0  0  0
    2.7696   -0.0701    4.0104 C   0  0  0  0  0  0  0  0  0  0  0  0
    1.8285    0.4797    3.1905 O   0  0  0  0  0  0  0  0  0  0  0  0
    1.4435   -0.3928    2.1054 C   0  0  1  0  0  0  0  0  0  0  0  0
    0.4869    0.3668    1.1299 C   0  0  2  0  0  0  0  0  0  0  0  0
   -0.8461    0.7592    1.8317 C   0  0  1  0  0  0  0  0  0  0  0  0
   -1.9061    0.6023    0.7329 C   0  0  1  0  0  0  0  0  0  0  0  0
   -1.3801   -0.5808   -0.0954 C   0  0  1  0  0  0  0  0  0  0  0  0
    0.1052   -0.5233   -0.0057 N   0  0  1  0  0  0  0  0  0  0  0  0
    0.8221   -0.0839   -1.2362 C   0  0  1  0  0  0  0  0  0  0  0  0
    1.8462    0.9747   -0.7985 C   0  0  1  0  0  0  0  0  0  0  0  0
    1.2023    1.5774    0.4556 C   0  0  2  0  0  0  0  0  0  0  0  0
    4.0876    0.0770    3.7450 N   0  0  0  0  0  0  0  0  0  0  0  0
    5.0407   -0.4959    4.5228 C   0  0  0  0  0  0  0  0  0  0  0  0
    6.4038   -0.2927    4.1992 C   0  0  0  0  0  0  0  0  0  0  0  0
    6.7425    0.4932    3.2060 F   0  0  0  0  0  0  0  0  0  0  0  0
    2.6806   -1.9971    7.0788 N   0  0  0  0  0  0  0  0  0  0  0  0
    1.3603   -2.6169    6.9743 C   0  0  2  0  0  0  0  0  0  0  0  0
    0.5389   -2.5481    8.3020 C   0  0  2  0  0  0  0  0  0  0  0  0
    0.2417   -1.1105    8.7939 C   0  0  2  0  0  0  0  0  0  0  0  0
    1.4857   -0.7265    9.6229 C   0  0  2  0  0  0  0  0  0  0  0  0
    2.3503   -2.0078    9.5828 C   0  0  2  0  0  0  0  0  0  0  0  0
    3.3364   -2.0642    8.3780 C   0  0  2  0  0  0  0  0  0  0  0  0
    1.3690   -3.0898    9.3889 N   0  0  1  0  0  0  0  0  0  0  0  0
   11.4617   -2.5485    2.4421 H   0  0  0  0  0  0  0  0  0  0  0  0
    8.8252   -1.6070    2.8520 H   0  0  0  0  0  0  0  0  0  0  0  0
   11.6323    0.3560    6.3022 H   0  0  0  0  0  0  0  0  0  0  0  0
   12.6115   -0.4770    4.2722 H   0  0  0  0  0  0  0  0  0  0  0  0
    8.3437    0.9895    8.7630 H   0  0  0  0  0  0  0  0  0  0  0  0
    5.5287   -2.6457    7.0462 H   0  0  0  0  0  0  0  0  0  0  0  0
    2.3208   -0.7430    1.5517 H   0  0  0  0  0  0  0  0  0  0  0  0
    0.9313   -1.2737    2.5034 H   0  0  0  0  0  0  0  0  0  0  0  0
   -1.0861    0.0705    2.6492 H   0  0  0  0  0  0  0  0  0  0  0  0
   -0.8254    1.7762    2.2335 H   0  0  0  0  0  0  0  0  0  0  0  0
   -2.8982    0.4018    1.1467 H   0  0  0  0  0  0  0  0  0  0  0  0
   -1.9497    1.5035    0.1162 H   0  0  0  0  0  0  0  0  0  0  0  0
   -1.7112   -1.5234    0.3488 H   0  0  0  0  0  0  0  0  0  0  0  0
   -1.7696   -0.5400   -1.1174 H   0  0  0  0  0  0  0  0  0  0  0  0
    1.3245   -0.9405   -1.6904 H   0  0  0  0  0  0  0  0  0  0  0  0
    0.1545    0.3576   -1.9839 H   0  0  0  0  0  0  0  0  0  0  0  0
    2.8014    0.5055   -0.5449 H   0  0  0  0  0  0  0  0  0  0  0  0
    2.0094    1.7266   -1.5755 H   0  0  0  0  0  0  0  0  0  0  0  0
    1.9504    2.0504    1.0975 H   0  0  0  0  0  0  0  0  0  0  0  0
    0.4840    2.3448    0.1516 H   0  0  0  0  0  0  0  0  0  0  0  0
    1.5069   -3.6660    6.7015 H   0  0  0  0  0  0  0  0  0  0  0  0
    0.7372   -2.1706    6.1960 H   0  0  0  0  0  0  0  0  0  0  0  0
   -0.3817   -3.1271    8.1988 H   0  0  0  0  0  0  0  0  0  0  0  0
   -0.6434   -1.1198    9.4379 H   0  0  0  0  0  0  0  0  0  0  0  0
    0.0718   -0.4111    7.9701 H   0  0  0  0  0  0  0  0  0  0  0  0
    1.1984   -0.4979   10.6531 H   0  0  0  0  0  0  0  0  0  0  0  0
    2.0094    0.1372    9.2012 H   0  0  0  0  0  0  0  0  0  0  0  0
    2.8944   -2.1489   10.5209 H   0  0  0  0  0  0  0  0  0  0  0  0
    4.0723   -1.2641    8.5020 H   0  0  0  0  0  0  0  0  0  0  0  0
    3.8498   -3.0238    8.4547 H   0  0  0  0  0  0  0  0  0  0  0  0
    0.7837   -3.1196   10.2253 H   0  0  0  0  0  0  0  0  0  0  0  0
  1  2  1  0  0  0  0
  2  3  2  0  0  0  0
  3  4  1  0  0  0  0
  4  5  2  0  0  0  0
  5  6  1  0  0  0  0
  6  7  2  0  0  0  0
  2  7  1  0  0  0  0
  5  8  1  0  0  0  0
  8  9  3  0  0  0  0
  4 10  1  0  0  0  0
 10 11  2  0  0  0  0
 11 12  1  0  0  0  0
 12 13  2  0  0  0  0
 13 14  1  0  0  0  0
 14 15  2  0  0  0  0
 15 16  1  0  0  0  0
 16 17  1  0  0  0  0
 17 18  1  0  0  0  0
 18 19  1  0  0  0  0
 19 20  1  0  0  0  0
 20 21  1  0  0  0  0
 21 22  1  0  0  0  0
 22 23  1  0  0  0  0
 19 23  1  0  0  0  0
 23 24  1  0  0  0  0
 24 25  1  0  0  0  0
 25 26  1  0  0  0  0
 19 26  1  0  0  0  0
 16 27  2  0  0  0  0
 27 28  1  0  0  0  0
 13 28  1  0  0  0  0
 28 29  2  0  0  0  0
 10 29  1  0  0  0  0
 29 30  1  0  0  0  0
 14 31  1  0  0  0  0
 31 32  1  0  0  0  0
 32 33  1  0  0  0  0
 33 34  1  0  0  0  0
 34 35  1  0  0  0  0
 35 36  1  0  0  0  0
 36 37  1  0  0  0  0
 31 37  1  0  0  0  0
 36 38  1  0  0  0  0
 33 38  1  0  0  0  0
  1 39  1  0  0  0  0
  3 40  1  0  0  0  0
  6 41  1  0  0  0  0
  7 42  1  0  0  0  0
  9 43  1  0  0  0  0
 12 44  1  0  0  0  0
 18 45  1  0  0  0  0
 18 46  1  0  0  0  0
 20 47  1  0  0  0  0
 20 48  1  0  0  0  0
 21 49  1  0  0  0  0
 21 50  1  0  0  0  0
 22 51  1  0  0  0  0
 22 52  1  0  0  0  0
 24 53  1  0  0  0  0
 24 54  1  0  0  0  0
 25 55  1  0  0  0  0
 25 56  1  0  0  0  0
 26 57  1  0  0  0  0
 26 58  1  0  0  0  0
 32 59  1  0  0  0  0
 32 60  1  0  0  0  0
 33 61  1  0  0  0  0
 34 62  1  0  0  0  0
 34 63  1  0  0  0  0
 35 64  1  0  0  0  0
 35 65  1  0  0  0  0
 36 66  1  0  0  0  0
 37 67  1  0  0  0  0
 37 68  1  0  0  0  0
 38 69  1  0  0  0  0
M  END
$$$$
