Molecule
  DSViewer          3D                             0

 75 82  0  0  0  0  0  0  0  0999 V2000
  -20.3202    3.8333   24.0555 C   0  0
  -20.9950    2.6696   23.8615 N   0  0
  -22.2968    2.6135   23.4849 C   0  0
  -23.0382    3.8009   23.2874 C   0  0
  -24.4412    3.8619   23.0369 C   0  0
  -24.9732    5.0748   22.7131 N   0  0
  -24.2567    6.2246   22.6703 C   0  0
  -22.9480    6.1880   23.0208 N   0  0
  -22.3208    5.0291   23.3448 C   0  0
  -20.9695    5.0535   23.7581 C   0  0
  -20.3440    6.1947   23.8958 F   0  0
  -17.5092    3.7965   27.9649 O   0  0
  -17.6263    3.7903   26.6119 C   0  0
  -16.4699    3.8282   25.8252 C   0  0
  -16.5549    3.7913   24.4161 C   0  0
  -15.3515    3.8378   23.6799 C   0  0
  -15.3681    3.7596   22.2849 C   0  0
  -16.5829    3.6146   21.6036 C   0  0
  -16.5150    3.5323   20.2930 F   0  0
  -17.8062    3.5532   22.3222 C   0  0
  -17.8242    3.7009   23.7519 C   0  0
  -19.0018    3.7506   24.5772 C   0  0
  -18.8836    3.7641   25.9888 C   0  0
  -18.3070    3.3379   28.3056 H   0  0
  -18.8614    3.3068   21.5838 C   0  0
  -19.8536    3.0568   20.9672 C   0  0
  -25.3206    2.7982   23.1630 N   0  0
  -26.7646    2.9985   23.1608 C   0  0
  -27.4898    1.9968   22.2069 C   0  0  1  0  0  0
  -27.0029    2.0594   20.7404 C   0  0
  -25.7793    1.1141   20.7193 C   0  0
  -25.7070    0.5538   22.1638 C   0  0  1  0  0  0
  -24.8551    1.4188   23.1504 C   0  0
  -27.1094    0.6326   22.6148 N   0  0
  -27.6488   -0.0152   22.0380 H   0  0
  -24.8638    7.4086   22.3536 O   0  0
  -26.1392    7.2618   21.6914 C   0  0
  -26.6550    8.6547   21.1973 C   0  0  1  0  0  0
  -28.1676    8.5954   20.8083 C   0  0
  -28.9102    9.0941   22.0563 C   0  0
  -27.9512   10.1491   22.6149 C   0  0
  -26.5876    9.6279   22.3295 N   0  0
  -25.5772   10.6649   22.0015 C   0  0
  -25.5348   10.7216   20.4654 C   0  0  2  0  0  0
  -26.5479   11.5110   19.9662 F   0  0
  -25.7364    9.2467   20.0783 C   0  0
  -22.7749    1.6457   23.3334 H   0  0
  -15.4930    3.8868   26.3051 H   0  0
  -14.4009    3.9356   24.2042 H   0  0
  -14.4338    3.8116   21.7260 H   0  0
  -19.7849    3.7540   26.6017 H   0  0
  -20.7589    2.8287   20.4046 H   0  0
  -27.1416    2.8562   24.1736 H   0  0
  -26.9787    4.0156   22.8324 H   0  0
  -28.5706    2.1277   22.2601 H   0  0
  -27.7773    1.7078   20.0586 H   0  0
  -26.7139    3.0750   20.4700 H   0  0
  -25.9253    0.3089   19.9993 H   0  0
  -24.8708    1.6632   20.4718 H   0  0
  -25.3608   -0.4798   22.1596 H   0  0
  -24.9407    1.0037   24.1546 H   0  0
  -23.8119    1.3967   22.8353 H   0  0
  -26.0261    6.5957   20.8360 H   0  0
  -26.8607    6.8378   22.3898 H   0  0
  -28.3709    9.2432   19.9556 H   0  0
  -28.4629    7.5741   20.5678 H   0  0
  -29.8709    9.5361   21.7922 H   0  0
  -29.0657    8.2859   22.7709 H   0  0
  -28.1057   11.1069   22.1181 H   0  0
  -28.0976   10.2682   23.6884 H   0  0
  -25.8750   11.6303   22.4106 H   0  0
  -24.6016   10.3862   22.3999 H   0  0
  -24.5644   11.0795   20.1213 H   0  0
  -26.2207    9.1693   19.1049 H   0  0
  -24.7803    8.7239   20.0517 H   0  0
 12 13  1  0  0  0
 13 14  2  0  0  0
 14 15  1  0  0  0
 15 16  2  0  0  0
 16 17  1  0  0  0
 17 18  2  0  0  0
 18 19  1  0  0  0
 18 20  1  0  0  0
 20 25  1  0  0  0
 25 26  3  0  0  0
 20 21  2  0  0  0
 15 21  1  0  0  0
 21 22  1  0  0  0
 22 23  2  0  0  0
 13 23  1  0  0  0
 22  1  1  0  0  0
  1  2  2  0  0  0
  2  3  1  0  0  0
  3  4  2  0  0  0
  4  5  1  0  0  0
  5  6  2  0  0  0
  6  7  1  0  0  0
  7 36  1  0  0  0
 36 37  1  0  0  0
 38 37  1  0  0  0
 38 39  1  0  0  0
 39 40  1  0  0  0
 40 41  1  0  0  0
 41 42  1  0  0  0
 38 42  1  0  0  0
 42 43  1  0  0  0
 43 44  1  0  0  0
 44 45  1  0  0  0
 44 46  1  0  0  0
 38 46  1  0  0  0
  7  8  2  0  0  0
  8  9  1  0  0  0
  4  9  1  0  0  0
  9 10  2  0  0  0
  1 10  1  0  0  0
 10 11  1  0  0  0
  5 27  1  0  0  0
 27 28  1  0  0  0
 28 29  1  0  0  0
 29 30  1  0  0  0
 30 31  1  0  0  0
 31 32  1  0  0  0
 32 33  1  0  0  0
 27 33  1  0  0  0
 32 34  1  0  0  0
 29 34  1  0  0  0
 12 24  1  0  0  0
 34 35  1  0  0  0
  3 47  1  0  0  0
 14 48  1  0  0  0
 16 49  1  0  0  0
 17 50  1  0  0  0
 23 51  1  0  0  0
 26 52  1  0  0  0
 28 53  1  0  0  0
 28 54  1  0  0  0
 29 55  1  0  0  0
 30 56  1  0  0  0
 30 57  1  0  0  0
 31 58  1  0  0  0
 31 59  1  0  0  0
 32 60  1  0  0  0
 33 61  1  0  0  0
 33 62  1  0  0  0
 37 63  1  0  0  0
 37 64  1  0  0  0
 39 65  1  0  0  0
 39 66  1  0  0  0
 40 67  1  0  0  0
 40 68  1  0  0  0
 41 69  1  0  0  0
 41 70  1  0  0  0
 43 71  1  0  0  0
 43 72  1  0  0  0
 44 73  1  0  0  0
 46 74  1  0  0  0
 46 75  1  0  0  0
M  END
> <minimizedAffinity>
-13.5542

> <CNNscore>
0.81196

> <CNNaffinity>
8.55354

> <CNN_VS>
6.94514

> <CNNaffinity_variance>
0.0437961

$$$$
Molecule
  DSViewer          3D                             0

 75 82  0  0  0  0  0  0  0  0999 V2000
  -22.3008    4.2622   24.1405 C   0  0
  -22.5564    5.4578   23.5467 N   0  0
  -23.7776    5.8134   23.0759 C   0  0
  -24.8702    4.9212   23.1697 C   0  0
  -26.1531    5.1279   22.5812 C   0  0
  -27.1433    4.2460   22.8982 N   0  0
  -26.9615    3.1624   23.6920 C   0  0
  -25.7162    2.9001   24.1581 N   0  0
  -24.6662    3.7236   23.9116 C   0  0
  -23.3766    3.3747   24.3729 C   0  0
  -23.1805    2.2293   24.9746 F   0  0
  -18.8847    4.1660   27.5327 O   0  0
  -19.2460    3.9909   26.2354 C   0  0
  -18.2680    3.6570   25.2922 C   0  0
  -18.6146    3.4369   23.9410 C   0  0
  -17.5803    3.1081   23.0385 C   0  0
  -17.8666    2.8352   21.6983 C   0  0
  -19.1899    2.8670   21.2417 C   0  0
  -19.3801    2.5835   19.9719 F   0  0
  -20.2494    3.1834   22.1328 C   0  0
  -19.9768    3.5361   23.4994 C   0  0
  -20.9511    3.9647   24.4674 C   0  0
  -20.5766    4.1551   25.8203 C   0  0
  -19.6805    3.9504   28.0646 H   0  0
  -21.4492    3.0737   21.6153 C   0  0
  -22.5643    2.9501   21.2047 C   0  0
  -26.4567    6.1156   21.6576 N   0  0
  -27.3248    5.8513   20.5165 C   0  0
  -28.4130    6.9583   20.3441 C   0  0  1  0  0  0
  -29.3134    7.1545   21.5860 C   0  0
  -28.5163    8.1467   22.4643 C   0  0
  -27.2548    8.4708   21.6222 C   0  0  1  0  0  0
  -26.0520    7.4992   21.8604 C   0  0
  -27.7214    8.2556   20.2393 N   0  0
  -28.4341    8.9617   20.0480 H   0  0
  -28.0000    2.3111   23.9520 O   0  0
  -29.2548    2.7082   23.3563 C   0  0
  -30.2835    3.0950   24.4710 C   0  0  1  0  0  0
  -29.6771    4.1344   25.4684 C   0  0
  -30.1675    5.4966   24.9568 C   0  0
  -31.5603    5.1662   24.4130 C   0  0
  -31.4420    3.7982   23.8409 N   0  0
  -32.6501    2.9492   23.9942 C   0  0
  -32.3972    2.1034   25.2533 C   0  0  2  0  0  0
  -32.7104    2.8043   26.3975 F   0  0
  -30.8862    1.8293   25.1646 C   0  0
  -23.9177    6.7944   22.6218 H   0  0
  -17.2274    3.5658   25.6036 H   0  0
  -16.5494    3.0667   23.3900 H   0  0
  -17.0582    2.5971   21.0070 H   0  0
  -21.3351    4.4340   26.5517 H   0  0
  -23.5817    2.8373   20.8301 H   0  0
  -26.7165    5.8115   19.6129 H   0  0
  -27.8193    4.8913   20.6649 H   0  0
  -29.0166    6.7705   19.4562 H   0  0
  -30.2787    7.5746   21.3035 H   0  0
  -29.4664    6.2099   22.1080 H   0  0
  -29.0976    9.0493   22.6528 H   0  0
  -28.2400    7.6871   23.4133 H   0  0
  -26.9487    9.5066   21.7691 H   0  0
  -25.2518    7.7434   21.1617 H   0  0
  -25.6922    7.6200   22.8822 H   0  0
  -29.0887    3.5671   22.7060 H   0  0
  -29.6533    1.8799   22.7705 H   0  0
  -30.0377    3.9515   26.4806 H   0  0
  -28.5881    4.0886   25.4563 H   0  0
  -30.2236    6.2241   25.7665 H   0  0
  -29.5179    5.8782   24.1691 H   0  0
  -32.2974    5.1821   25.2158 H   0  0
  -31.8480    5.8796   23.6407 H   0  0
  -33.5377    3.5687   24.1229 H   0  0
  -32.7779    2.3070   23.1228 H   0  0
  -32.9597    1.1708   25.2085 H   0  0
  -30.4617    1.6998   26.1601 H   0  0
  -30.6934    0.9377   24.5680 H   0  0
 12 13  1  0  0  0
 13 14  2  0  0  0
 14 15  1  0  0  0
 15 16  2  0  0  0
 16 17  1  0  0  0
 17 18  2  0  0  0
 18 19  1  0  0  0
 18 20  1  0  0  0
 20 25  1  0  0  0
 25 26  3  0  0  0
 20 21  2  0  0  0
 15 21  1  0  0  0
 21 22  1  0  0  0
 22 23  2  0  0  0
 13 23  1  0  0  0
 22  1  1  0  0  0
  1  2  2  0  0  0
  2  3  1  0  0  0
  3  4  2  0  0  0
  4  5  1  0  0  0
  5  6  2  0  0  0
  6  7  1  0  0  0
  7 36  1  0  0  0
 36 37  1  0  0  0
 38 37  1  0  0  0
 38 39  1  0  0  0
 39 40  1  0  0  0
 40 41  1  0  0  0
 41 42  1  0  0  0
 38 42  1  0  0  0
 42 43  1  0  0  0
 43 44  1  0  0  0
 44 45  1  0  0  0
 44 46  1  0  0  0
 38 46  1  0  0  0
  7  8  2  0  0  0
  8  9  1  0  0  0
  4  9  1  0  0  0
  9 10  2  0  0  0
  1 10  1  0  0  0
 10 11  1  0  0  0
  5 27  1  0  0  0
 27 28  1  0  0  0
 28 29  1  0  0  0
 29 30  1  0  0  0
 30 31  1  0  0  0
 31 32  1  0  0  0
 32 33  1  0  0  0
 27 33  1  0  0  0
 32 34  1  0  0  0
 29 34  1  0  0  0
 12 24  1  0  0  0
 34 35  1  0  0  0
  3 47  1  0  0  0
 14 48  1  0  0  0
 16 49  1  0  0  0
 17 50  1  0  0  0
 23 51  1  0  0  0
 26 52  1  0  0  0
 28 53  1  0  0  0
 28 54  1  0  0  0
 29 55  1  0  0  0
 30 56  1  0  0  0
 30 57  1  0  0  0
 31 58  1  0  0  0
 31 59  1  0  0  0
 32 60  1  0  0  0
 33 61  1  0  0  0
 33 62  1  0  0  0
 37 63  1  0  0  0
 37 64  1  0  0  0
 39 65  1  0  0  0
 39 66  1  0  0  0
 40 67  1  0  0  0
 40 68  1  0  0  0
 41 69  1  0  0  0
 41 70  1  0  0  0
 43 71  1  0  0  0
 43 72  1  0  0  0
 44 73  1  0  0  0
 46 74  1  0  0  0
 46 75  1  0  0  0
M  END
> <minimizedAffinity>
-5.78891

> <CNNscore>
0.270487

> <CNNaffinity>
7.44457

> <CNN_VS>
2.01366

> <CNNaffinity_variance>
0.0131556

$$$$
Molecule
  DSViewer          3D                             0

 75 82  0  0  0  0  0  0  0  0999 V2000
  -20.2377    4.0479   22.7898 C   0  0
  -20.8526    2.8504   22.6015 N   0  0
  -22.1987    2.7049   22.5223 C   0  0
  -23.0503    3.8258   22.6530 C   0  0
  -24.4735    3.7718   22.7335 C   0  0
  -25.1536    4.9529   22.6987 N   0  0
  -24.5530    6.1671   22.6471 C   0  0
  -23.1995    6.2245   22.6876 N   0  0
  -22.4310    5.1063   22.7083 C   0  0
  -21.0259    5.2215   22.8077 C   0  0
  -20.4705    6.3979   22.9497 F   0  0
  -15.8668    4.0837   20.7699 O   0  0
  -16.6352    4.0102   21.8872 C   0  0
  -16.0204    3.8119   23.1283 C   0  0
  -16.7871    3.7622   24.3131 C   0  0
  -16.1069    3.5544   25.5323 C   0  0
  -16.8053    3.5402   26.7425 C   0  0
  -18.1894    3.7521   26.7576 C   0  0
  -18.7726    3.7397   27.9361 F   0  0
  -18.8948    3.9754   25.5455 C   0  0
  -18.2128    3.9260   24.2811 C   0  0
  -18.8313    4.0419   22.9872 C   0  0
  -18.0333    4.1119   21.8188 C   0  0
  -16.3696    4.6365   20.1340 H   0  0
  -20.1635    4.2692   25.6983 C   0  0
  -21.3316    4.5073   25.7767 C   0  0
  -25.2187    2.6172   22.9133 N   0  0
  -26.6704    2.6588   23.0399 C   0  0
  -27.3648    1.5946   22.1320 C   0  0  1  0  0  0
  -27.0186    1.7261   20.6305 C   0  0
  -25.7069    0.9202   20.4843 C   0  0
  -25.4477    0.3552   21.9054 C   0  0  1  0  0  0
  -24.6103    1.2970   22.8322 C   0  0
  -26.8052    0.2756   22.4774 N   0  0
  -27.3204   -0.4207   21.9362 H   0  0
  -25.3022    7.3113   22.6323 O   0  0
  -26.4466    7.2586   21.7522 C   0  0
  -26.7866    8.6915   21.2217 C   0  0  1  0  0  0
  -28.2702    8.7815   20.7382 C   0  0
  -29.0348    9.3650   21.9352 C   0  0
  -28.0105   10.3232   22.5495 C   0  0
  -26.6916    9.6641   22.3525 N   0  0
  -25.5628   10.5905   22.0853 C   0  0
  -25.4191   10.6274   20.5547 C   0  0  2  0  0  0
  -26.3137   11.5102   19.9898 F   0  0
  -25.7447    9.1767   20.1609 C   0  0
  -22.6271    1.7164   22.3566 H   0  0
  -14.9380    3.6945   23.1812 H   0  0
  -15.0274    3.4037   25.5298 H   0  0
  -16.2717    3.3639   27.6765 H   0  0
  -18.5136    4.2471   20.8497 H   0  0
  -22.3973    4.7245   25.8482 H   0  0
  -26.9391    2.4652   24.0784 H   0  0
  -27.0209    3.6500   22.7521 H   0  0
  -28.4445    1.6063   22.2811 H   0  0
  -27.8076    1.2996   20.0111 H   0  0
  -26.8656    2.7701   20.3571 H   0  0
  -25.8282    0.1119   19.7632 H   0  0
  -24.8882    1.5679   20.1706 H   0  0
  -24.9939   -0.6343   21.8501 H   0  0
  -24.5619    0.8640   23.8313 H   0  0
  -23.6026    1.3923   22.4278 H   0  0
  -26.2220    6.6062   20.9084 H   0  0
  -27.3033    6.8645   22.2989 H   0  0
  -28.3531    9.4381   19.8721 H   0  0
  -28.6520    7.7929   20.4832 H   0  0
  -29.9274    9.8991   21.6095 H   0  0
  -29.3157    8.5837   22.6414 H   0  0
  -28.0358   11.2868   22.0406 H   0  0
  -28.2108   10.4670   23.6112 H   0  0
  -25.7861   11.5851   22.4714 H   0  0
  -24.6473   10.2187   22.5454 H   0  0
  -24.3979   10.8820   20.2712 H   0  0
  -26.1726    9.1390   19.1591 H   0  0
  -24.8468    8.5598   20.1965 H   0  0
 12 13  1  0  0  0
 13 14  2  0  0  0
 14 15  1  0  0  0
 15 16  2  0  0  0
 16 17  1  0  0  0
 17 18  2  0  0  0
 18 19  1  0  0  0
 18 20  1  0  0  0
 20 25  1  0  0  0
 25 26  3  0  0  0
 20 21  2  0  0  0
 15 21  1  0  0  0
 21 22  1  0  0  0
 22 23  2  0  0  0
 13 23  1  0  0  0
 22  1  1  0  0  0
  1  2  2  0  0  0
  2  3  1  0  0  0
  3  4  2  0  0  0
  4  5  1  0  0  0
  5  6  2  0  0  0
  6  7  1  0  0  0
  7 36  1  0  0  0
 36 37  1  0  0  0
 38 37  1  0  0  0
 38 39  1  0  0  0
 39 40  1  0  0  0
 40 41  1  0  0  0
 41 42  1  0  0  0
 38 42  1  0  0  0
 42 43  1  0  0  0
 43 44  1  0  0  0
 44 45  1  0  0  0
 44 46  1  0  0  0
 38 46  1  0  0  0
  7  8  2  0  0  0
  8  9  1  0  0  0
  4  9  1  0  0  0
  9 10  2  0  0  0
  1 10  1  0  0  0
 10 11  1  0  0  0
  5 27  1  0  0  0
 27 28  1  0  0  0
 28 29  1  0  0  0
 29 30  1  0  0  0
 30 31  1  0  0  0
 31 32  1  0  0  0
 32 33  1  0  0  0
 27 33  1  0  0  0
 32 34  1  0  0  0
 29 34  1  0  0  0
 12 24  1  0  0  0
 34 35  1  0  0  0
  3 47  1  0  0  0
 14 48  1  0  0  0
 16 49  1  0  0  0
 17 50  1  0  0  0
 23 51  1  0  0  0
 26 52  1  0  0  0
 28 53  1  0  0  0
 28 54  1  0  0  0
 29 55  1  0  0  0
 30 56  1  0  0  0
 30 57  1  0  0  0
 31 58  1  0  0  0
 31 59  1  0  0  0
 32 60  1  0  0  0
 33 61  1  0  0  0
 33 62  1  0  0  0
 37 63  1  0  0  0
 37 64  1  0  0  0
 39 65  1  0  0  0
 39 66  1  0  0  0
 40 67  1  0  0  0
 40 68  1  0  0  0
 41 69  1  0  0  0
 41 70  1  0  0  0
 43 71  1  0  0  0
 43 72  1  0  0  0
 44 73  1  0  0  0
 46 74  1  0  0  0
 46 75  1  0  0  0
M  END
> <minimizedAffinity>
-9.82989

> <CNNscore>
0.236719

> <CNNaffinity>
7.62173

> <CNN_VS>
1.80421

> <CNNaffinity_variance>
0.266717

$$$$
Molecule
  DSViewer          3D                             0

 75 82  0  0  0  0  0  0  0  0999 V2000
  -20.3219    4.0664   22.7924 C   0  0
  -20.9206    2.8607   22.6044 N   0  0
  -22.2645    2.6974   22.5230 C   0  0
  -23.1311    3.8070   22.6509 C   0  0
  -24.5536    3.7344   22.7289 C   0  0
  -25.2492    4.9064   22.6916 N   0  0
  -24.6645    6.1283   22.6396 C   0  0
  -23.3120    6.2036   22.6824 N   0  0
  -22.5288    5.0956   22.7058 C   0  0
  -21.1255    5.2295   22.8075 C   0  0
  -20.5860    6.4133   22.9491 F   0  0
  -15.9488    4.1973   20.7812 O   0  0
  -16.7178    4.0965   21.8960 C   0  0
  -16.1020    3.8902   23.1353 C   0  0
  -16.8698    3.8123   24.3179 C   0  0
  -16.1884    3.5979   25.5353 C   0  0
  -16.8886    3.5561   26.7439 C   0  0
  -18.2757    3.7465   26.7595 C   0  0
  -18.8606    3.7087   27.9366 F   0  0
  -18.9825    3.9759   25.5493 C   0  0
  -18.2978    3.9547   24.2856 C   0  0
  -18.9159    4.0791   22.9923 C   0  0
  -18.1172    4.1777   21.8265 C   0  0
  -16.4590    4.7512   20.1522 H   0  0
  -20.2558    4.2481   25.7039 C   0  0
  -21.4262    4.4758   25.7797 C   0  0
  -25.2838    2.5702   22.9088 N   0  0
  -26.7314    2.5970   23.0787 C   0  0
  -27.4437    1.5439   22.1717 C   0  0  1  0  0  0
  -27.1430    1.7061   20.6635 C   0  0
  -25.8297    0.9144   20.4637 C   0  0
  -25.5242    0.3254   21.8657 C   0  0  1  0  0  0
  -24.6674    1.2571   22.7851 C   0  0
  -26.8636    0.2235   22.4757 N   0  0
  -27.3888   -0.4670   21.9369 H   0  0
  -25.4287    7.2625   22.6221 O   0  0
  -26.1114    7.4974   21.3709 C   0  0
  -27.6556    7.3202   21.5564 C   0  0  1  0  0  0
  -28.3113    8.6167   22.1328 C   0  0
  -28.8436    9.3640   20.9015 C   0  0
  -29.2758    8.2206   19.9793 C   0  0
  -28.2884    7.1335   20.2154 N   0  0
  -28.8423    5.7581   20.1419 C   0  0
  -29.1509    5.3644   21.5960 C   0  0  2  0  0  0
  -30.3697    5.8636   22.0011 F   0  0
  -27.9950    6.0257   22.3658 C   0  0
  -22.6795    1.7032   22.3577 H   0  0
  -15.0181    3.7885   23.1885 H   0  0
  -15.1067    3.4638   25.5327 H   0  0
  -16.3539    3.3749   27.6763 H   0  0
  -18.5979    4.3191   20.8585 H   0  0
  -22.4940    4.6835   25.8489 H   0  0
  -26.9678    2.3819   24.1208 H   0  0
  -27.0981    3.5903   22.8200 H   0  0
  -28.5186    1.5436   22.3526 H   0  0
  -27.9465    1.2844   20.0597 H   0  0
  -27.0066    2.7563   20.4053 H   0  0
  -25.9657    0.1186   19.7314 H   0  0
  -25.0259    1.5748   20.1384 H   0  0
  -25.0643   -0.6590   21.7785 H   0  0
  -24.5860    0.8061   23.7741 H   0  0
  -23.6729    1.3686   22.3531 H   0  0
  -25.9036    8.5125   21.0325 H   0  0
  -25.7542    6.7855   20.6268 H   0  0
  -29.1260    8.3660   22.8122 H   0  0
  -27.5716    9.2203   22.6587 H   0  0
  -29.6893   10.0002   21.1625 H   0  0
  -28.0626    9.9682   20.4398 H   0  0
  -30.2814    7.8849   20.2327 H   0  0
  -29.2505    8.5399   18.9374 H   0  0
  -29.7523    5.7451   19.5420 H   0  0
  -28.1113    5.0753   19.7089 H   0  0
  -29.1211    4.2813   21.7149 H   0  0
  -28.3056    6.2786   23.3795 H   0  0
  -27.1317    5.3614   22.4048 H   0  0
 12 13  1  0  0  0
 13 14  2  0  0  0
 14 15  1  0  0  0
 15 16  2  0  0  0
 16 17  1  0  0  0
 17 18  2  0  0  0
 18 19  1  0  0  0
 18 20  1  0  0  0
 20 25  1  0  0  0
 25 26  3  0  0  0
 20 21  2  0  0  0
 15 21  1  0  0  0
 21 22  1  0  0  0
 22 23  2  0  0  0
 13 23  1  0  0  0
 22  1  1  0  0  0
  1  2  2  0  0  0
  2  3  1  0  0  0
  3  4  2  0  0  0
  4  5  1  0  0  0
  5  6  2  0  0  0
  6  7  1  0  0  0
  7 36  1  0  0  0
 36 37  1  0  0  0
 38 37  1  0  0  0
 38 39  1  0  0  0
 39 40  1  0  0  0
 40 41  1  0  0  0
 41 42  1  0  0  0
 38 42  1  0  0  0
 42 43  1  0  0  0
 43 44  1  0  0  0
 44 45  1  0  0  0
 44 46  1  0  0  0
 38 46  1  0  0  0
  7  8  2  0  0  0
  8  9  1  0  0  0
  4  9  1  0  0  0
  9 10  2  0  0  0
  1 10  1  0  0  0
 10 11  1  0  0  0
  5 27  1  0  0  0
 27 28  1  0  0  0
 28 29  1  0  0  0
 29 30  1  0  0  0
 30 31  1  0  0  0
 31 32  1  0  0  0
 32 33  1  0  0  0
 27 33  1  0  0  0
 32 34  1  0  0  0
 29 34  1  0  0  0
 12 24  1  0  0  0
 34 35  1  0  0  0
  3 47  1  0  0  0
 14 48  1  0  0  0
 16 49  1  0  0  0
 17 50  1  0  0  0
 23 51  1  0  0  0
 26 52  1  0  0  0
 28 53  1  0  0  0
 28 54  1  0  0  0
 29 55  1  0  0  0
 30 56  1  0  0  0
 30 57  1  0  0  0
 31 58  1  0  0  0
 31 59  1  0  0  0
 32 60  1  0  0  0
 33 61  1  0  0  0
 33 62  1  0  0  0
 37 63  1  0  0  0
 37 64  1  0  0  0
 39 65  1  0  0  0
 39 66  1  0  0  0
 40 67  1  0  0  0
 40 68  1  0  0  0
 41 69  1  0  0  0
 41 70  1  0  0  0
 43 71  1  0  0  0
 43 72  1  0  0  0
 44 73  1  0  0  0
 46 74  1  0  0  0
 46 75  1  0  0  0
M  END
> <minimizedAffinity>
-9.41029

> <CNNscore>
0.112788

> <CNNaffinity>
7.10604

> <CNN_VS>
0.801474

> <CNNaffinity_variance>
0.804189

$$$$
Molecule
  DSViewer          3D                             0

 75 82  0  0  0  0  0  0  0  0999 V2000
  -26.8234    6.5753   22.1987 C   0  0
  -27.1394    5.2541   22.2450 N   0  0
  -26.2253    4.2730   22.4485 C   0  0
  -24.8570    4.5895   22.6098 C   0  0
  -23.7962    3.6385   22.6815 C   0  0
  -22.5529    4.1012   22.9960 N   0  0
  -22.2629    5.4112   23.1888 C   0  0
  -23.2449    6.3275   23.0072 N   0  0
  -24.5188    5.9688   22.7075 C   0  0
  -25.4924    6.9660   22.4724 C   0  0
  -25.1535    8.2300   22.4743 F   0  0
  -28.1478   10.3475   19.5150 O   0  0
  -28.4440    9.4440   20.4846 C   0  0
  -29.6693    9.5358   21.1538 C   0  0
  -30.0220    8.5938   22.1450 C   0  0
  -31.2703    8.7452   22.7863 C   0  0
  -31.6945    7.8197   23.7434 C   0  0
  -30.8898    6.7189   24.0616 C   0  0
  -31.3648    5.8843   24.9599 F   0  0
  -29.6351    6.5378   23.4216 C   0  0
  -29.1433    7.5109   22.4849 C   0  0
  -27.8541    7.4867   21.8465 C   0  0
  -27.5388    8.4319   20.8395 C   0  0
  -27.5301    9.8924   18.9034 H   0  0
  -29.0259    5.4162   23.7217 C   0  0
  -28.4695    4.3793   23.9280 C   0  0
  -23.9144    2.2888   22.3897 N   0  0
  -24.6380    1.3792   23.2696 C   0  0
  -25.6247    0.4642   22.4770 C   0  0  1  0  0  0
  -26.6682    1.2402   21.6400 C   0  0
  -25.9359    1.5186   20.3068 C   0  0
  -24.5566    0.8307   20.4801 C   0  0  1  0  0  0
  -23.4570    1.7404   21.1211 C   0  0
  -24.8480   -0.2463   21.4453 N   0  0
  -25.4850   -0.8991   20.9857 H   0  0
  -20.9863    5.8026   23.4851 O   0  0
  -19.9942    5.3558   22.5349 C   0  0
  -19.1497    4.1872   23.1447 C   0  0  1  0  0  0
  -19.0684    2.9728   22.1640 C   0  0
  -17.7344    3.1572   21.4262 C   0  0
  -16.8385    3.7701   22.5062 C   0  0
  -17.7360    4.6431   23.3093 N   0  0
  -17.4230    4.6972   24.7595 C   0  0
  -18.3565    3.6673   25.4169 C   0  0  2  0  0  0
  -17.8396    2.3933   25.3244 F   0  0
  -19.6399    3.8092   24.5810 C   0  0
  -26.5481    3.2327   22.4880 H   0  0
  -30.3590   10.3431   20.9074 H   0  0
  -31.9089    9.5914   22.5327 H   0  0
  -32.6537    7.9549   24.2432 H   0  0
  -26.5763    8.3721   20.3314 H   0  0
  -27.9619    3.4333   24.1162 H   0  0
  -23.9189    0.7503   23.7945 H   0  0
  -25.2049    1.9653   23.9929 H   0  0
  -26.1156   -0.2432   23.1453 H   0  0
  -27.5603    0.6362   21.4744 H   0  0
  -26.9460    2.1720   22.1325 H   0  0
  -26.4813    1.0853   19.4684 H   0  0
  -25.8161    2.5903   20.1481 H   0  0
  -24.2105    0.4166   19.5331 H   0  0
  -22.5580    1.1480   21.2914 H   0  0
  -23.2291    2.5597   20.4392 H   0  0
  -20.4932    5.0059   21.6312 H   0  0
  -19.3333    6.1864   22.2872 H   0  0
  -19.0760    2.0325   22.7152 H   0  0
  -19.9017    2.9896   21.4615 H   0  0
  -17.3391    2.2011   21.0830 H   0  0
  -17.8444    3.8315   20.5769 H   0  0
  -16.4053    2.9894   23.1315 H   0  0
  -16.0403    4.3574   22.0523 H   0  0
  -16.3801    4.4330   24.9346 H   0  0
  -17.6170    5.6944   25.1545 H   0  0
  -18.5455    3.9301   26.4577 H   0  0
  -20.1904    2.8686   24.5623 H   0  0
  -20.2763    4.5953   24.9874 H   0  0
 12 13  1  0  0  0
 13 14  2  0  0  0
 14 15  1  0  0  0
 15 16  2  0  0  0
 16 17  1  0  0  0
 17 18  2  0  0  0
 18 19  1  0  0  0
 18 20  1  0  0  0
 20 25  1  0  0  0
 25 26  3  0  0  0
 20 21  2  0  0  0
 15 21  1  0  0  0
 21 22  1  0  0  0
 22 23  2  0  0  0
 13 23  1  0  0  0
 22  1  1  0  0  0
  1  2  2  0  0  0
  2  3  1  0  0  0
  3  4  2  0  0  0
  4  5  1  0  0  0
  5  6  2  0  0  0
  6  7  1  0  0  0
  7 36  1  0  0  0
 36 37  1  0  0  0
 38 37  1  0  0  0
 38 39  1  0  0  0
 39 40  1  0  0  0
 40 41  1  0  0  0
 41 42  1  0  0  0
 38 42  1  0  0  0
 42 43  1  0  0  0
 43 44  1  0  0  0
 44 45  1  0  0  0
 44 46  1  0  0  0
 38 46  1  0  0  0
  7  8  2  0  0  0
  8  9  1  0  0  0
  4  9  1  0  0  0
  9 10  2  0  0  0
  1 10  1  0  0  0
 10 11  1  0  0  0
  5 27  1  0  0  0
 27 28  1  0  0  0
 28 29  1  0  0  0
 29 30  1  0  0  0
 30 31  1  0  0  0
 31 32  1  0  0  0
 32 33  1  0  0  0
 27 33  1  0  0  0
 32 34  1  0  0  0
 29 34  1  0  0  0
 12 24  1  0  0  0
 34 35  1  0  0  0
  3 47  1  0  0  0
 14 48  1  0  0  0
 16 49  1  0  0  0
 17 50  1  0  0  0
 23 51  1  0  0  0
 26 52  1  0  0  0
 28 53  1  0  0  0
 28 54  1  0  0  0
 29 55  1  0  0  0
 30 56  1  0  0  0
 30 57  1  0  0  0
 31 58  1  0  0  0
 31 59  1  0  0  0
 32 60  1  0  0  0
 33 61  1  0  0  0
 33 62  1  0  0  0
 37 63  1  0  0  0
 37 64  1  0  0  0
 39 65  1  0  0  0
 39 66  1  0  0  0
 40 67  1  0  0  0
 40 68  1  0  0  0
 41 69  1  0  0  0
 41 70  1  0  0  0
 43 71  1  0  0  0
 43 72  1  0  0  0
 44 73  1  0  0  0
 46 74  1  0  0  0
 46 75  1  0  0  0
M  END
> <minimizedAffinity>
-8.26799

> <CNNscore>
0.104994

> <CNNaffinity>
7.04537

> <CNN_VS>
0.739721

> <CNNaffinity_variance>
0.337152

$$$$
Molecule
  DSViewer          3D                             0

 75 82  0  0  0  0  0  0  0  0999 V2000
  -26.1214   13.0630   24.8702 C   0  0
  -25.8139   14.1565   24.1239 N   0  0
  -25.9397   14.2006   22.7742 C   0  0
  -26.3948   13.0694   22.0588 C   0  0
  -26.4256   12.9534   20.6374 C   0  0
  -27.0398   11.8584   20.1059 N   0  0
  -27.5699   10.8566   20.8494 C   0  0
  -27.4390   10.9089   22.1973 N   0  0
  -26.8574   11.9622   22.8247 C   0  0
  -26.6949   11.9412   24.2285 C   0  0
  -27.0396   10.8819   24.9151 F   0  0
  -22.7860   12.5262   28.3014 O   0  0
  -24.0778   12.7650   27.9571 C   0  0
  -25.0380   12.9122   28.9641 C   0  0
  -26.3840   13.1924   28.6415 C   0  0
  -27.3044   13.3242   29.7036 C   0  0
  -28.6406   13.6452   29.4503 C   0  0
  -29.0753   13.8586   28.1365 C   0  0
  -30.3428   14.1722   27.9808 F   0  0
  -28.1659   13.7436   27.0518 C   0  0
  -26.8029   13.3468   27.2774 C   0  0
  -25.8176   13.1058   26.2569 C   0  0
  -24.4705   12.8496   26.6124 C   0  0
  -22.2418   12.8854   27.5682 H   0  0
  -28.6640   14.0732   25.8845 C   0  0
  -29.1146   14.3070   24.8030 C   0  0
  -25.8202   13.8316   19.7526 N   0  0
  -24.9903   13.3547   18.6529 C   0  0
  -25.3567   14.0496   17.3031 C   0  0  1  0  0  0
  -26.8360   13.8761   16.8870 C   0  0
  -27.5609   15.0296   17.6187 C   0  0
  -26.4231   15.7923   18.3464 C   0  0  1  0  0  0
  -26.1034   15.2593   19.7820 C   0  0
  -25.2469   15.5057   17.5033 N   0  0
  -25.4107   15.9470   16.5969 H   0  0
  -28.1561    9.7793   20.2441 O   0  0
  -27.7892    8.5053   20.8178 C   0  0
  -28.9331    7.4610   20.5910 C   0  0  1  0  0  0
  -28.3945    6.1705   19.8929 C   0  0
  -28.1289    5.1881   21.0428 C   0  0
  -29.2454    5.5266   22.0345 C   0  0
  -29.4384    6.9969   21.9187 N   0  0
  -30.8403    7.4586   22.0783 C   0  0
  -31.3913    7.5911   20.6488 C   0  0  2  0  0  0
  -31.8178    6.3744   20.1627 F   0  0
  -30.1657    8.1019   19.8724 C   0  0
  -25.6880   15.1151   22.2371 H   0  0
  -24.7440   12.8095   30.0087 H   0  0
  -26.9700   13.1743   30.7301 H   0  0
  -29.3459   13.7296   30.2771 H   0  0
  -23.7259   12.7158   25.8277 H   0  0
  -29.5257   14.5203   23.8163 H   0  0
  -23.9456   13.5628   18.8840 H   0  0
  -25.1320   12.2793   18.5453 H   0  0
  -24.6908   13.7188   16.5061 H   0  0
  -26.9492   13.9693   15.8069 H   0  0
  -27.2197   12.9087   17.2109 H   0  0
  -28.0687   15.6803   16.9068 H   0  0
  -28.2841   14.6392   18.3347 H   0  0
  -26.6295   16.8623   18.3695 H   0  0
  -25.2344   15.7878   20.1739 H   0  0
  -26.9615   15.4399   20.4294 H   0  0
  -26.8754    8.1469   20.3438 H   0  0
  -27.6203    8.6276   21.8877 H   0  0
  -29.1380    5.7662   19.2060 H   0  0
  -27.4742    6.3833   19.3489 H   0  0
  -28.2041    4.1551   20.7031 H   0  0
  -27.1464    5.3553   21.4842 H   0  0
  -30.1624    4.9991   21.7719 H   0  0
  -28.9494    5.2589   23.0488 H   0  0
  -31.4199    6.7293   22.6443 H   0  0
  -30.8689    8.4213   22.5887 H   0  0
  -32.1990    8.3223   20.6151 H   0  0
  -30.2112    7.7813   18.8316 H   0  0
  -30.1112    9.1897   19.9160 H   0  0
 12 13  1  0  0  0
 13 14  2  0  0  0
 14 15  1  0  0  0
 15 16  2  0  0  0
 16 17  1  0  0  0
 17 18  2  0  0  0
 18 19  1  0  0  0
 18 20  1  0  0  0
 20 25  1  0  0  0
 25 26  3  0  0  0
 20 21  2  0  0  0
 15 21  1  0  0  0
 21 22  1  0  0  0
 22 23  2  0  0  0
 13 23  1  0  0  0
 22  1  1  0  0  0
  1  2  2  0  0  0
  2  3  1  0  0  0
  3  4  2  0  0  0
  4  5  1  0  0  0
  5  6  2  0  0  0
  6  7  1  0  0  0
  7 36  1  0  0  0
 36 37  1  0  0  0
 38 37  1  0  0  0
 38 39  1  0  0  0
 39 40  1  0  0  0
 40 41  1  0  0  0
 41 42  1  0  0  0
 38 42  1  0  0  0
 42 43  1  0  0  0
 43 44  1  0  0  0
 44 45  1  0  0  0
 44 46  1  0  0  0
 38 46  1  0  0  0
  7  8  2  0  0  0
  8  9  1  0  0  0
  4  9  1  0  0  0
  9 10  2  0  0  0
  1 10  1  0  0  0
 10 11  1  0  0  0
  5 27  1  0  0  0
 27 28  1  0  0  0
 28 29  1  0  0  0
 29 30  1  0  0  0
 30 31  1  0  0  0
 31 32  1  0  0  0
 32 33  1  0  0  0
 27 33  1  0  0  0
 32 34  1  0  0  0
 29 34  1  0  0  0
 12 24  1  0  0  0
 34 35  1  0  0  0
  3 47  1  0  0  0
 14 48  1  0  0  0
 16 49  1  0  0  0
 17 50  1  0  0  0
 23 51  1  0  0  0
 26 52  1  0  0  0
 28 53  1  0  0  0
 28 54  1  0  0  0
 29 55  1  0  0  0
 30 56  1  0  0  0
 30 57  1  0  0  0
 31 58  1  0  0  0
 31 59  1  0  0  0
 32 60  1  0  0  0
 33 61  1  0  0  0
 33 62  1  0  0  0
 37 63  1  0  0  0
 37 64  1  0  0  0
 39 65  1  0  0  0
 39 66  1  0  0  0
 40 67  1  0  0  0
 40 68  1  0  0  0
 41 69  1  0  0  0
 41 70  1  0  0  0
 43 71  1  0  0  0
 43 72  1  0  0  0
 44 73  1  0  0  0
 46 74  1  0  0  0
 46 75  1  0  0  0
M  END
> <minimizedAffinity>
-4.70982

> <CNNscore>
0.0829547

> <CNNaffinity>
5.33294

> <CNN_VS>
0.442393

> <CNNaffinity_variance>
0.374688

$$$$
Molecule
  DSViewer          3D                             0

 75 82  0  0  0  0  0  0  0  0999 V2000
  -29.9141    7.5530   23.1855 C   0  0
  -28.7291    7.4198   22.5332 N   0  0
  -28.0658    6.2422   22.4199 C   0  0
  -28.5855    5.0666   23.0084 C   0  0
  -27.9071    3.8138   23.0793 C   0  0
  -28.6099    2.7397   23.5390 N   0  0
  -29.8900    2.8093   23.9794 C   0  0
  -30.4976    4.0200   24.0212 N   0  0
  -29.8896    5.1474   23.5732 C   0  0
  -30.5456    6.3937   23.6917 C   0  0
  -31.7047    6.4726   24.2940 F   0  0
  -32.0293   11.3468   21.1073 O   0  0
  -31.4669   10.7817   22.2067 C   0  0
  -31.3210   11.5458   23.3697 C   0  0
  -30.7693   10.9798   24.5399 C   0  0
  -30.6447   11.8054   25.6780 C   0  0
  -30.1477   11.2908   26.8784 C   0  0
  -29.7857    9.9411   26.9680 C   0  0
  -29.3417    9.5284   28.1349 F   0  0
  -29.9130    9.0872   25.8405 C   0  0
  -30.3554    9.6058   24.5749 C   0  0
  -30.4344    8.8649   23.3441 C   0  0
  -31.0142    9.4534   22.1933 C   0  0
  -32.4360   10.6090   20.6044 H   0  0
  -29.6473    7.8255   26.0784 C   0  0
  -29.4007    6.6660   26.2272 C   0  0
  -26.5682    3.6142   22.7823 N   0  0
  -25.5182    3.9394   23.7400 C   0  0
  -24.4777    2.7830   23.8782 C   0  0  1  0  0  0
  -25.0945    1.4280   24.2969 C   0  0
  -25.5403    0.7979   22.9569 C   0  0
  -25.0909    1.8256   21.8856 C   0  0  1  0  0  0
  -26.1508    2.9311   21.5663 C   0  0
  -23.9465    2.4936   22.5341 N   0  0
  -23.2118    1.7930   22.6456 H   0  0
  -30.5256    1.6906   24.4431 O   0  0
  -31.8838    1.5434   23.9736 C   0  0
  -32.2481    0.0269   23.8401 C   0  0  1  0  0  0
  -33.6914   -0.1631   23.2711 C   0  0
  -33.4900   -0.3830   21.7648 C   0  0
  -32.1694   -1.1566   21.7150 C   0  0
  -31.3493   -0.6017   22.8249 N   0  0
  -30.4772   -1.5873   23.5119 C   0  0
  -31.2714   -2.0434   24.7471 C   0  0  2  0  0  0
  -32.1776   -3.0295   24.4227 F   0  0
  -31.9857   -0.7493   25.1724 C   0  0
  -27.1250    6.2020   21.8710 H   0  0
  -31.6366   12.5891   23.3725 H   0  0
  -30.9387   12.8534   25.6200 H   0  0
  -30.0416   11.9413   27.7466 H   0  0
  -31.1104    8.8641   21.2814 H   0  0
  -29.1757    5.6081   26.3630 H   0  0
  -25.0023    4.8393   23.4051 H   0  0
  -25.9734    4.1219   24.7134 H   0  0
  -23.6739    3.0669   24.5574 H   0  0
  -24.3540    0.8011   24.7937 H   0  0
  -25.9476    1.5775   24.9587 H   0  0
  -25.0507   -0.1632   22.7999 H   0  0
  -26.6217    0.6634   22.9339 H   0  0
  -24.7754    1.3189   20.9735 H   0  0
  -25.7141    3.6572   20.8807 H   0  0
  -27.0206    2.4680   21.1003 H   0  0
  -32.5631    2.0157   24.6832 H   0  0
  -31.9823    2.0243   23.0004 H   0  0
  -34.1726   -1.0294   23.7251 H   0  0
  -34.2961    0.7255   23.4523 H   0  0
  -34.3054   -0.9686   21.3401 H   0  0
  -33.4100    0.5666   21.2357 H   0  0
  -32.3448   -2.2218   21.8654 H   0  0
  -31.6717   -1.0014   20.7578 H   0  0
  -30.2699   -2.4342   22.8578 H   0  0
  -29.5387   -1.1216   23.8126 H   0  0
  -30.5970   -2.3852   25.5322 H   0  0
  -32.9262   -0.9783   25.6735 H   0  0
  -31.3519   -0.1634   25.8382 H   0  0
 12 13  1  0  0  0
 13 14  2  0  0  0
 14 15  1  0  0  0
 15 16  2  0  0  0
 16 17  1  0  0  0
 17 18  2  0  0  0
 18 19  1  0  0  0
 18 20  1  0  0  0
 20 25  1  0  0  0
 25 26  3  0  0  0
 20 21  2  0  0  0
 15 21  1  0  0  0
 21 22  1  0  0  0
 22 23  2  0  0  0
 13 23  1  0  0  0
 22  1  1  0  0  0
  1  2  2  0  0  0
  2  3  1  0  0  0
  3  4  2  0  0  0
  4  5  1  0  0  0
  5  6  2  0  0  0
  6  7  1  0  0  0
  7 36  1  0  0  0
 36 37  1  0  0  0
 38 37  1  0  0  0
 38 39  1  0  0  0
 39 40  1  0  0  0
 40 41  1  0  0  0
 41 42  1  0  0  0
 38 42  1  0  0  0
 42 43  1  0  0  0
 43 44  1  0  0  0
 44 45  1  0  0  0
 44 46  1  0  0  0
 38 46  1  0  0  0
  7  8  2  0  0  0
  8  9  1  0  0  0
  4  9  1  0  0  0
  9 10  2  0  0  0
  1 10  1  0  0  0
 10 11  1  0  0  0
  5 27  1  0  0  0
 27 28  1  0  0  0
 28 29  1  0  0  0
 29 30  1  0  0  0
 30 31  1  0  0  0
 31 32  1  0  0  0
 32 33  1  0  0  0
 27 33  1  0  0  0
 32 34  1  0  0  0
 29 34  1  0  0  0
 12 24  1  0  0  0
 34 35  1  0  0  0
  3 47  1  0  0  0
 14 48  1  0  0  0
 16 49  1  0  0  0
 17 50  1  0  0  0
 23 51  1  0  0  0
 26 52  1  0  0  0
 28 53  1  0  0  0
 28 54  1  0  0  0
 29 55  1  0  0  0
 30 56  1  0  0  0
 30 57  1  0  0  0
 31 58  1  0  0  0
 31 59  1  0  0  0
 32 60  1  0  0  0
 33 61  1  0  0  0
 33 62  1  0  0  0
 37 63  1  0  0  0
 37 64  1  0  0  0
 39 65  1  0  0  0
 39 66  1  0  0  0
 40 67  1  0  0  0
 40 68  1  0  0  0
 41 69  1  0  0  0
 41 70  1  0  0  0
 43 71  1  0  0  0
 43 72  1  0  0  0
 44 73  1  0  0  0
 46 74  1  0  0  0
 46 75  1  0  0  0
M  END
> <minimizedAffinity>
-3.11574

> <CNNscore>
0.0768747

> <CNNaffinity>
6.6834

> <CNN_VS>
0.513784

> <CNNaffinity_variance>
0.13474

$$$$
Molecule
  DSViewer          3D                             0

 75 82  0  0  0  0  0  0  0  0999 V2000
  -31.1948    7.6057   22.7756 C   0  0
  -32.2049    7.0425   23.4896 N   0  0
  -32.1587    5.7801   23.9833 C   0  0
  -31.0287    4.9617   23.7555 C   0  0
  -30.9321    3.5801   24.0972 C   0  0
  -29.7179    2.9769   23.9532 N   0  0
  -28.6214    3.5997   23.4560 C   0  0
  -28.7410    4.8784   23.0228 N   0  0
  -29.9020    5.5718   23.1354 C   0  0
  -29.9898    6.8834   22.6163 C   0  0
  -28.9793    7.4034   21.9675 F   0  0
  -30.8535   12.3827   23.2756 O   0  0
  -31.2675   11.3122   22.5499 C   0  0
  -31.9912   11.5235   21.3712 C   0  0
  -32.4095   10.4337   20.5766 C   0  0
  -33.1404   10.7142   19.4021 C   0  0
  -33.5432    9.6811   18.5518 C   0  0
  -33.2069    8.3547   18.8491 C   0  0
  -33.6081    7.4410   17.9928 F   0  0
  -32.4618    8.0478   20.0185 C   0  0
  -32.0948    9.0828   20.9460 C   0  0
  -31.4262    8.8853   22.2046 C   0  0
  -30.9988    9.9996   22.9678 C   0  0
  -30.0488   12.0881   23.7537 H   0  0
  -32.1155    6.7881   20.1302 C   0  0
  -31.7640    5.6471   20.1736 C   0  0
  -31.9915    2.7824   24.4999 N   0  0
  -33.1003    2.4782   23.6037 C   0  0
  -33.4481    0.9557   23.6037 C   0  0  1  0  0  0
  -32.2639    0.0396   23.2163 C   0  0
  -31.5192   -0.1828   24.5532 C   0  0
  -32.3741    0.5832   25.5963 C   0  0  1  0  0  0
  -31.9781    2.0857   25.7781 C   0  0
  -33.7216    0.5573   24.9961 N   0  0
  -34.0243   -0.4179   24.9760 H   0  0
  -27.4397    2.9237   23.3246 O   0  0
  -26.5363    3.4933   22.3519 C   0  0
  -25.1283    2.8182   22.4617 C   0  0  1  0  0  0
  -24.0008    3.8832   22.6559 C   0  0
  -23.7685    3.9315   24.1730 C   0  0
  -24.0021    2.4774   24.5921 C   0  0
  -25.0847    1.9827   23.7001 N   0  0
  -24.9667    0.5568   23.3041 C   0  0
  -24.2733    0.5708   21.9316 C   0  0  2  0  0  0
  -22.9057    0.6764   22.0635 F   0  0
  -24.8681    1.8297   21.2779 C   0  0
  -32.9991    5.3937   24.5600 H   0  0
  -32.2347   12.5403   21.0630 H   0  0
  -33.3928   11.7457   19.1563 H   0  0
  -34.1203    9.9081   17.6554 H   0  0
  -30.4516    9.8347   23.8960 H   0  0
  -31.4433    4.6061   20.2132 H   0  0
  -33.9774    3.0399   23.9251 H   0  0
  -32.8275    2.7772   22.5916 H   0  0
  -34.3121    0.7577   22.9694 H   0  0
  -32.6214   -0.9060   22.8088 H   0  0
  -31.6169    0.5283   22.4878 H   0  0
  -31.4713   -1.2441   24.7971 H   0  0
  -30.5097    0.2256   24.5059 H   0  0
  -32.3689    0.0644   26.5549 H   0  0
  -32.6887    2.5633   26.4527 H   0  0
  -30.9768    2.1420   26.2051 H   0  0
  -26.9362    3.3311   21.3510 H   0  0
  -26.4378    4.5632   22.5354 H   0  0
  -23.0915    3.5793   22.1373 H   0  0
  -24.3232    4.8562   22.2852 H   0  0
  -22.7522    4.2496   24.4055 H   0  0
  -24.4792    4.6001   24.6588 H   0  0
  -23.0947    1.8895   24.4537 H   0  0
  -24.3134    2.4259   25.6354 H   0  0
  -24.3658    0.0081   24.0293 H   0  0
  -25.9531    0.0992   23.2283 H   0  0
  -24.5361   -0.3192   21.3598 H   0  0
  -24.1634    2.2611   20.5670 H   0  0
  -25.8007    1.5911   20.7665 H   0  0
 12 13  1  0  0  0
 13 14  2  0  0  0
 14 15  1  0  0  0
 15 16  2  0  0  0
 16 17  1  0  0  0
 17 18  2  0  0  0
 18 19  1  0  0  0
 18 20  1  0  0  0
 20 25  1  0  0  0
 25 26  3  0  0  0
 20 21  2  0  0  0
 15 21  1  0  0  0
 21 22  1  0  0  0
 22 23  2  0  0  0
 13 23  1  0  0  0
 22  1  1  0  0  0
  1  2  2  0  0  0
  2  3  1  0  0  0
  3  4  2  0  0  0
  4  5  1  0  0  0
  5  6  2  0  0  0
  6  7  1  0  0  0
  7 36  1  0  0  0
 36 37  1  0  0  0
 38 37  1  0  0  0
 38 39  1  0  0  0
 39 40  1  0  0  0
 40 41  1  0  0  0
 41 42  1  0  0  0
 38 42  1  0  0  0
 42 43  1  0  0  0
 43 44  1  0  0  0
 44 45  1  0  0  0
 44 46  1  0  0  0
 38 46  1  0  0  0
  7  8  2  0  0  0
  8  9  1  0  0  0
  4  9  1  0  0  0
  9 10  2  0  0  0
  1 10  1  0  0  0
 10 11  1  0  0  0
  5 27  1  0  0  0
 27 28  1  0  0  0
 28 29  1  0  0  0
 29 30  1  0  0  0
 30 31  1  0  0  0
 31 32  1  0  0  0
 32 33  1  0  0  0
 27 33  1  0  0  0
 32 34  1  0  0  0
 29 34  1  0  0  0
 12 24  1  0  0  0
 34 35  1  0  0  0
  3 47  1  0  0  0
 14 48  1  0  0  0
 16 49  1  0  0  0
 17 50  1  0  0  0
 23 51  1  0  0  0
 26 52  1  0  0  0
 28 53  1  0  0  0
 28 54  1  0  0  0
 29 55  1  0  0  0
 30 56  1  0  0  0
 30 57  1  0  0  0
 31 58  1  0  0  0
 31 59  1  0  0  0
 32 60  1  0  0  0
 33 61  1  0  0  0
 33 62  1  0  0  0
 37 63  1  0  0  0
 37 64  1  0  0  0
 39 65  1  0  0  0
 39 66  1  0  0  0
 40 67  1  0  0  0
 40 68  1  0  0  0
 41 69  1  0  0  0
 41 70  1  0  0  0
 43 71  1  0  0  0
 43 72  1  0  0  0
 44 73  1  0  0  0
 46 74  1  0  0  0
 46 75  1  0  0  0
M  END
> <minimizedAffinity>
-5.71917

> <CNNscore>
0.0665604

> <CNNaffinity>
6.08416

> <CNN_VS>
0.404964

> <CNNaffinity_variance>
0.340133

$$$$
Molecule
  DSViewer          3D                             0

 75 82  0  0  0  0  0  0  0  0999 V2000
  -29.6558    7.5349   23.2476 C   0  0
  -28.7182    7.3400   22.2830 N   0  0
  -28.2319    6.1189   21.9482 C   0  0
  -28.6805    4.9591   22.6206 C   0  0
  -28.1361    3.6510   22.4556 C   0  0
  -28.7855    2.6154   23.0596 N   0  0
  -29.8792    2.7678   23.8458 C   0  0
  -30.3288    4.0213   24.0975 N   0  0
  -29.7615    5.1173   23.5332 C   0  0
  -30.2325    6.4057   23.8732 C   0  0
  -31.1646    6.5473   24.7807 F   0  0
  -32.6817   10.5142   25.5176 O   0  0
  -31.5924   10.3380   24.7260 C   0  0
  -30.9394   11.4589   24.2017 C   0  0
  -29.7855   11.3122   23.4010 C   0  0
  -29.1766   12.4824   22.8986 C   0  0
  -28.0072   12.4045   22.1376 C   0  0
  -27.4165   11.1609   21.8821 C   0  0
  -26.3097   11.1712   21.1723 F   0  0
  -28.0032    9.9702   22.3866 C   0  0
  -29.2429   10.0149   23.1129 C   0  0
  -29.9795    8.8747   23.5898 C   0  0
  -31.1203    9.0547   24.4102 C   0  0
  -32.7137    9.7316   26.1085 H   0  0
  -27.3008    8.8834   22.1752 C   0  0
  -26.7101    7.8720   21.9395 C   0  0
  -26.9591    3.3559   21.7859 N   0  0
  -25.6559    3.5833   22.3985 C   0  0
  -24.7129    2.3490   22.2361 C   0  0  1  0  0  0
  -25.2864    1.0374   22.8212 C   0  0
  -26.1468    0.4671   21.6697 C   0  0
  -25.9464    1.4770   20.5096 C   0  0  1  0  0  0
  -26.9639    2.6652   20.5044 C   0  0
  -24.6154    2.0445   20.7973 N   0  0
  -23.9364    1.2883   20.6953 H   0  0
  -30.4676    1.6818   24.4332 O   0  0
  -31.8795    1.5513   24.1568 C   0  0
  -32.2969    0.0428   24.1772 C   0  0  1  0  0  0
  -33.7207   -0.1614   23.5655 C   0  0
  -33.4633   -0.5581   22.1047 C   0  0
  -32.1732   -1.3770   22.2044 C   0  0
  -31.3806   -0.7277   23.2827 N   0  0
  -30.5783   -1.6578   24.1164 C   0  0
  -31.4424   -1.9429   25.3560 C   0  0  2  0  0  0
  -32.3717   -2.9280   25.1018 F   0  0
  -32.1229   -0.5851   25.5991 C   0  0
  -27.4897    6.0312   21.1548 H   0  0
  -31.3255   12.4560   24.4136 H   0  0
  -29.6224   13.4552   23.1060 H   0  0
  -27.5540   13.3135   21.7421 H   0  0
  -31.6405    8.1811   24.8031 H   0  0
  -26.1712    6.9493   21.7245 H   0  0
  -25.1899    4.4474   21.9249 H   0  0
  -25.7960    3.7823   23.4610 H   0  0
  -23.7280    2.5589   22.6533 H   0  0
  -24.4854    0.3473   23.0861 H   0  0
  -25.8984    1.2392   23.7003 H   0  0
  -25.7994   -0.5254   21.3826 H   0  0
  -27.1961    0.4154   21.9602 H   0  0
  -25.9473    0.9644   19.5477 H   0  0
  -26.6879    3.3684   19.7186 H   0  0
  -27.9643    2.2779   20.3111 H   0  0
  -32.4462    2.0919   24.9149 H   0  0
  -32.0942    1.9709   23.1740 H   0  0
  -34.2546   -0.9535   24.0905 H   0  0
  -34.2973    0.7622   23.6171 H   0  0
  -34.2820   -1.1600   21.7103 H   0  0
  -33.3233    0.3218   21.4768 H   0  0
  -32.3967   -2.4116   22.4647 H   0  0
  -31.6289   -1.3487   21.2604 H   0  0
  -30.3764   -2.5803   23.5720 H   0  0
  -29.6361   -1.1932   24.4070 H   0  0
  -30.8164   -2.2159   26.2055 H   0  0
  -33.0924   -0.7232   26.0777 H   0  0
  -31.4959    0.0508   26.2241 H   0  0
 12 13  1  0  0  0
 13 14  2  0  0  0
 14 15  1  0  0  0
 15 16  2  0  0  0
 16 17  1  0  0  0
 17 18  2  0  0  0
 18 19  1  0  0  0
 18 20  1  0  0  0
 20 25  1  0  0  0
 25 26  3  0  0  0
 20 21  2  0  0  0
 15 21  1  0  0  0
 21 22  1  0  0  0
 22 23  2  0  0  0
 13 23  1  0  0  0
 22  1  1  0  0  0
  1  2  2  0  0  0
  2  3  1  0  0  0
  3  4  2  0  0  0
  4  5  1  0  0  0
  5  6  2  0  0  0
  6  7  1  0  0  0
  7 36  1  0  0  0
 36 37  1  0  0  0
 38 37  1  0  0  0
 38 39  1  0  0  0
 39 40  1  0  0  0
 40 41  1  0  0  0
 41 42  1  0  0  0
 38 42  1  0  0  0
 42 43  1  0  0  0
 43 44  1  0  0  0
 44 45  1  0  0  0
 44 46  1  0  0  0
 38 46  1  0  0  0
  7  8  2  0  0  0
  8  9  1  0  0  0
  4  9  1  0  0  0
  9 10  2  0  0  0
  1 10  1  0  0  0
 10 11  1  0  0  0
  5 27  1  0  0  0
 27 28  1  0  0  0
 28 29  1  0  0  0
 29 30  1  0  0  0
 30 31  1  0  0  0
 31 32  1  0  0  0
 32 33  1  0  0  0
 27 33  1  0  0  0
 32 34  1  0  0  0
 29 34  1  0  0  0
 12 24  1  0  0  0
 34 35  1  0  0  0
  3 47  1  0  0  0
 14 48  1  0  0  0
 16 49  1  0  0  0
 17 50  1  0  0  0
 23 51  1  0  0  0
 26 52  1  0  0  0
 28 53  1  0  0  0
 28 54  1  0  0  0
 29 55  1  0  0  0
 30 56  1  0  0  0
 30 57  1  0  0  0
 31 58  1  0  0  0
 31 59  1  0  0  0
 32 60  1  0  0  0
 33 61  1  0  0  0
 33 62  1  0  0  0
 37 63  1  0  0  0
 37 64  1  0  0  0
 39 65  1  0  0  0
 39 66  1  0  0  0
 40 67  1  0  0  0
 40 68  1  0  0  0
 41 69  1  0  0  0
 41 70  1  0  0  0
 43 71  1  0  0  0
 43 72  1  0  0  0
 44 73  1  0  0  0
 46 74  1  0  0  0
 46 75  1  0  0  0
M  END
> <minimizedAffinity>
-5.3101

> <CNNscore>
0.0466192

> <CNNaffinity>
6.26167

> <CNN_VS>
0.291914

> <CNNaffinity_variance>
0.189832

$$$$
