


 39 43  0  0  0  0  0  0  0  0999 V2000
  -19.6918    4.7318   21.9610 C   0  0  0  0  0  0  0  0  0  0  0  0
  -20.3401    5.8561   22.5993 O   0  0  0  0  0  0  0  0  0  0  0  0
  -20.8442    5.6261   23.9304 C   0  0  0  0  0  0  0  0  0  0  0  0
  -21.6144    4.3627   24.0623 C   0  0  0  0  0  0  0  0  0  0  0  0
  -21.5877    3.4031   23.0192 C   0  0  0  0  0  0  0  0  0  0  0  0
  -22.2971    2.2516   23.1409 N   0  0  0  0  0  0  0  0  0  0  0  0
  -23.0064    1.9663   24.2589 C   0  0  0  0  0  0  0  0  0  0  0  0
  -23.0289    2.8573   25.2813 N   0  0  0  0  0  0  0  0  0  0  0  0
  -22.3607    4.0380   25.2203 C   0  0  0  0  0  0  0  0  0  0  0  0
  -22.4311    4.8592   26.2878 N   0  0  0  0  0  0  0  0  0  0  0  0
  -21.9648    5.7125   26.2834 H   0  0  0  0  0  0  0  0  0  0  0  0
  -22.9465    4.6005   27.0691 H   0  0  0  0  0  0  0  0  0  0  0  0
  -20.7447    3.5840   21.8140 C   0  0  0  0  0  0  0  0  0  0  0  0
  -18.8983    5.3766   24.6916 F   0  0  0  0  0  0  0  0  0  0  0  0
  -18.0238    4.8276   23.8944 C   0  0  0  0  0  0  0  0  0  0  0  0
  -16.7651    4.6005   24.4708 C   0  0  0  0  0  0  0  0  0  0  0  0
  -15.7758    3.9612   23.7241 C   0  0  0  0  0  0  0  0  0  0  0  0
  -15.9941    3.5829   22.3827 C   0  0  0  0  0  0  0  0  0  0  0  0
  -17.2436    3.8999   21.7427 C   0  0  0  0  0  0  0  0  0  0  0  0
  -18.3061    4.4806   22.5391 C   0  0  0  0  0  0  0  0  0  0  0  0
  -14.8729    2.8359   21.7326 C   0  0  0  0  0  0  0  0  0  0  0  0
  -16.4911    4.9751   25.7406 N   0  0  0  0  0  0  0  0  0  0  0  0
  -17.1689    5.4241   26.2716 H   0  0  0  0  0  0  0  0  0  0  0  0
  -15.6162    4.8006   26.1218 H   0  0  0  0  0  0  0  0  0  0  0  0
  -17.4465    3.5509   20.2792 C   0  0  0  0  0  0  0  0  0  0  0  0
  -16.4625    2.7792   19.7190 F   0  0  0  0  0  0  0  0  0  0  0  0
  -18.5322    2.7724   19.9715 F   0  0  0  0  0  0  0  0  0  0  0  0
  -17.5675    4.7046   19.5476 F   0  0  0  0  0  0  0  0  0  0  0  0
  -23.6707    0.7812   24.3601 O   0  0  0  0  0  0  0  0  0  0  0  0
  -25.0958    0.9438   24.1928 C   0  0  0  0  0  0  0  0  0  0  0  0
  -25.4517    1.6975   22.8701 C   0  0  0  0  0  0  0  0  0  0  0  0
  -26.7544    1.1914   22.3461 N   0  0  0  0  0  0  0  0  0  0  0  0
  -27.7025    2.3381   22.2939 C   0  0  0  0  0  0  0  0  0  0  0  0
  -26.8318    3.6047   22.2491 C   0  0  0  0  0  0  0  0  0  0  0  0
  -25.6498    3.2221   23.1462 C   0  0  0  0  0  0  0  0  0  0  0  0
  -26.5199    0.4686   21.0634 C   0  0  0  0  0  0  0  0  0  0  0  0
  -25.0009    0.2457   20.9487 C   0  0  0  0  0  0  0  0  0  0  0  0
  -24.5696    0.2164   19.6416 F   0  0  0  0  0  0  0  0  0  0  0  0
  -24.4201    1.4322   21.7296 C   0  0  0  0  0  0  0  0  0  0  0  0
 14 15  1  0
 15 16  2  0
 16 17  1  0
 17 18  2  0
 18 19  1  0
 19 20  2  0
 15 20  1  0
  1 20  1  0
  1  2  1  0
  2  3  1  0
  3  4  1  0
  4  5  2  0
  5  6  1  0
  6  7  2  0
  7 29  1  0
 29 30  1  0
 31 30  1  0
 31 32  1  0
 32 33  1  0
 33 34  1  0
 34 35  1  0
 31 35  1  0
 32 36  1  0
 36 37  1  0
 37 38  1  0
 37 39  1  0
 31 39  1  0
  7  8  1  0
  8  9  2  0
  4  9  1  0
  9 10  1  0
 10 11  1  0
 10 12  1  0
  5 13  1  0
  1 13  1  0
 19 25  1  0
 25 26  1  0
 25 27  1  0
 25 28  1  0
 18 21  1  0
 16 22  1  0
 22 23  1  0
 22 24  1  0
M  END
> <minimizedAffinity>
-8.44230

> <CNNscore>
0.6612088680

> <CNNaffinity>
7.3475041389

> <CNN_VS>
4.8582348824

> <CNNaffinity_variance>
0.1375533789

$$$$



 39 43  0  0  0  0  0  0  0  0999 V2000
  -19.2521    3.4715   22.3392 C   0  0  0  0  0  0  0  0  0  0  0  0
  -19.8334    4.7195   21.8961 O   0  0  0  0  0  0  0  0  0  0  0  0
  -20.8610    5.2762   22.7404 C   0  0  0  0  0  0  0  0  0  0  0  0
  -21.8797    4.2829   23.1674 C   0  0  0  0  0  0  0  0  0  0  0  0
  -21.6554    2.8997   22.9535 C   0  0  0  0  0  0  0  0  0  0  0  0
  -22.5910    1.9947   23.3405 N   0  0  0  0  0  0  0  0  0  0  0  0
  -23.7292    2.3715   23.9703 C   0  0  0  0  0  0  0  0  0  0  0  0
  -23.9569    3.6873   24.2084 N   0  0  0  0  0  0  0  0  0  0  0  0
  -23.0755    4.6489   23.8304 C   0  0  0  0  0  0  0  0  0  0  0  0
  -23.3791    5.9313   24.1165 N   0  0  0  0  0  0  0  0  0  0  0  0
  -22.7727    6.6484   23.8640 H   0  0  0  0  0  0  0  0  0  0  0  0
  -24.2053    6.1455   24.5797 H   0  0  0  0  0  0  0  0  0  0  0  0
  -20.3866    2.3948   22.3780 C   0  0  0  0  0  0  0  0  0  0  0  0
  -20.0861    3.6891   25.1246 F   0  0  0  0  0  0  0  0  0  0  0  0
  -18.8155    3.7650   24.8397 C   0  0  0  0  0  0  0  0  0  0  0  0
  -17.9746    3.9421   25.9487 C   0  0  0  0  0  0  0  0  0  0  0  0
  -16.5929    3.9736   25.7617 C   0  0  0  0  0  0  0  0  0  0  0  0
  -16.0213    3.8834   24.4751 C   0  0  0  0  0  0  0  0  0  0  0  0
  -16.8717    3.8047   23.3167 C   0  0  0  0  0  0  0  0  0  0  0  0
  -18.3025    3.6793   23.5106 C   0  0  0  0  0  0  0  0  0  0  0  0
  -14.5263    3.8510   24.4345 C   0  0  0  0  0  0  0  0  0  0  0  0
  -18.4717    4.0696   27.1994 N   0  0  0  0  0  0  0  0  0  0  0  0
  -19.4316    4.0529   27.3448 H   0  0  0  0  0  0  0  0  0  0  0  0
  -17.8711    4.1830   27.9530 H   0  0  0  0  0  0  0  0  0  0  0  0
  -16.2513    3.7767   21.9314 C   0  0  0  0  0  0  0  0  0  0  0  0
  -16.3673    2.5872   21.2614 F   0  0  0  0  0  0  0  0  0  0  0  0
  -16.7988    4.6088   20.9892 F   0  0  0  0  0  0  0  0  0  0  0  0
  -14.9218    4.1012   22.0203 F   0  0  0  0  0  0  0  0  0  0  0  0
  -24.6241    1.4299   24.3811 O   0  0  0  0  0  0  0  0  0  0  0  0
  -25.9306    1.6360   23.8015 C   0  0  0  0  0  0  0  0  0  0  0  0
  -25.8474    2.1045   22.3123 C   0  0  0  0  0  0  0  0  0  0  0  0
  -27.1090    1.7357   21.6050 N   0  0  0  0  0  0  0  0  0  0  0  0
  -27.7399    2.9906   21.1114 C   0  0  0  0  0  0  0  0  0  0  0  0
  -26.6083    4.0283   21.0285 C   0  0  0  0  0  0  0  0  0  0  0  0
  -25.7371    3.6608   22.2344 C   0  0  0  0  0  0  0  0  0  0  0  0
  -26.8100    0.6975   20.5776 C   0  0  0  0  0  0  0  0  0  0  0  0
  -25.3896    0.1793   20.8679 C   0  0  0  0  0  0  0  0  0  0  0  0
  -24.7383   -0.2393   19.7294 F   0  0  0  0  0  0  0  0  0  0  0  0
  -24.7088    1.3907   21.5190 C   0  0  0  0  0  0  0  0  0  0  0  0
 14 15  1  0
 15 16  2  0
 16 17  1  0
 17 18  2  0
 18 19  1  0
 19 20  2  0
 15 20  1  0
  1 20  1  0
  1  2  1  0
  2  3  1  0
  3  4  1  0
  4  5  2  0
  5  6  1  0
  6  7  2  0
  7 29  1  0
 29 30  1  0
 31 30  1  0
 31 32  1  0
 32 33  1  0
 33 34  1  0
 34 35  1  0
 31 35  1  0
 32 36  1  0
 36 37  1  0
 37 38  1  0
 37 39  1  0
 31 39  1  0
  7  8  1  0
  8  9  2  0
  4  9  1  0
  9 10  1  0
 10 11  1  0
 10 12  1  0
  5 13  1  0
  1 13  1  0
 19 25  1  0
 25 26  1  0
 25 27  1  0
 25 28  1  0
 18 21  1  0
 16 22  1  0
 22 23  1  0
 22 24  1  0
M  END
> <minimizedAffinity>
-6.74543

> <CNNscore>
0.5323504806

> <CNNaffinity>
7.1514973640

> <CNN_VS>
3.8071031570

> <CNNaffinity_variance>
0.1253202707

$$$$



 39 43  0  0  0  0  0  0  0  0999 V2000
  -19.2725    3.2606   22.5525 C   0  0  0  0  0  0  0  0  0  0  0  0
  -19.6657    4.4616   21.8491 O   0  0  0  0  0  0  0  0  0  0  0  0
  -20.7223    5.2341   22.4538 C   0  0  0  0  0  0  0  0  0  0  0  0
  -21.8811    4.4135   22.8903 C   0  0  0  0  0  0  0  0  0  0  0  0
  -21.7773    3.0001   22.9240 C   0  0  0  0  0  0  0  0  0  0  0  0
  -22.8403    2.2529   23.3186 N   0  0  0  0  0  0  0  0  0  0  0  0
  -23.9995    2.8222   23.7265 C   0  0  0  0  0  0  0  0  0  0  0  0
  -24.1164    4.1735   23.7264 N   0  0  0  0  0  0  0  0  0  0  0  0
  -23.1022    4.9824   23.3245 C   0  0  0  0  0  0  0  0  0  0  0  0
  -23.3033    6.3153   23.3665 N   0  0  0  0  0  0  0  0  0  0  0  0
  -22.6007    6.9277   23.0891 H   0  0  0  0  0  0  0  0  0  0  0  0
  -24.1516    6.6712   23.6777 H   0  0  0  0  0  0  0  0  0  0  0  0
  -20.5087    2.3032   22.6064 C   0  0  0  0  0  0  0  0  0  0  0  0
  -20.3587    3.4486   25.2518 F   0  0  0  0  0  0  0  0  0  0  0  0
  -19.0811    3.6412   25.0720 C   0  0  0  0  0  0  0  0  0  0  0  0
  -18.3587    3.9189   26.2422 C   0  0  0  0  0  0  0  0  0  0  0  0
  -16.9753    4.0799   26.1704 C   0  0  0  0  0  0  0  0  0  0  0  0
  -16.2897    4.0212   24.9389 C   0  0  0  0  0  0  0  0  0  0  0  0
  -17.0265    3.8395   23.7161 C   0  0  0  0  0  0  0  0  0  0  0  0
  -18.4504    3.5805   23.7932 C   0  0  0  0  0  0  0  0  0  0  0  0
  -14.8003    4.1321   25.0240 C   0  0  0  0  0  0  0  0  0  0  0  0
  -18.9709    4.0213   27.4432 N   0  0  0  0  0  0  0  0  0  0  0  0
  -19.9339    3.9149   27.5084 H   0  0  0  0  0  0  0  0  0  0  0  0
  -18.4505    4.2058   28.2410 H   0  0  0  0  0  0  0  0  0  0  0  0
  -16.2900    3.8456   22.3886 C   0  0  0  0  0  0  0  0  0  0  0  0
  -16.6720    4.8261   21.5110 F   0  0  0  0  0  0  0  0  0  0  0  0
  -14.9439    4.1034   22.4268 F   0  0  0  0  0  0  0  0  0  0  0  0
  -16.4418    2.6275   21.7770 F   0  0  0  0  0  0  0  0  0  0  0  0
  -25.0287    2.0394   24.1554 O   0  0  0  0  0  0  0  0  0  0  0  0
  -26.3131    2.6521   23.9100 C   0  0  0  0  0  0  0  0  0  0  0  0
  -26.9116    2.2327   22.5280 C   0  0  0  0  0  0  0  0  0  0  0  0
  -26.1388    2.8895   21.4329 N   0  0  0  0  0  0  0  0  0  0  0  0
  -25.5495    1.8183   20.5833 C   0  0  0  0  0  0  0  0  0  0  0  0
  -26.4082    0.5661   20.8260 C   0  0  0  0  0  0  0  0  0  0  0  0
  -26.7610    0.6930   22.3118 C   0  0  0  0  0  0  0  0  0  0  0  0
  -27.0138    3.8773   20.7389 C   0  0  0  0  0  0  0  0  0  0  0  0
  -28.2594    4.0679   21.6235 C   0  0  0  0  0  0  0  0  0  0  0  0
  -29.3830    4.3797   20.8915 F   0  0  0  0  0  0  0  0  0  0  0  0
  -28.3834    2.7154   22.3376 C   0  0  0  0  0  0  0  0  0  0  0  0
 14 15  1  0
 15 16  2  0
 16 17  1  0
 17 18  2  0
 18 19  1  0
 19 20  2  0
 15 20  1  0
  1 20  1  0
  1  2  1  0
  2  3  1  0
  3  4  1  0
  4  5  2  0
  5  6  1  0
  6  7  2  0
  7 29  1  0
 29 30  1  0
 31 30  1  0
 31 32  1  0
 32 33  1  0
 33 34  1  0
 34 35  1  0
 31 35  1  0
 32 36  1  0
 36 37  1  0
 37 38  1  0
 37 39  1  0
 31 39  1  0
  7  8  1  0
  8  9  2  0
  4  9  1  0
  9 10  1  0
 10 11  1  0
 10 12  1  0
  5 13  1  0
  1 13  1  0
 19 25  1  0
 25 26  1  0
 25 27  1  0
 25 28  1  0
 18 21  1  0
 16 22  1  0
 22 23  1  0
 22 24  1  0
M  END
> <minimizedAffinity>
-7.65814

> <CNNscore>
0.3775810003

> <CNNaffinity>
6.8689823151

> <CNN_VS>
2.5935971737

> <CNNaffinity_variance>
0.3133721650

$$$$



 39 43  0  0  0  0  0  0  0  0999 V2000
  -19.3517    3.6737   22.2845 C   0  0  0  0  0  0  0  0  0  0  0  0
  -19.7111    4.9785   21.7745 O   0  0  0  0  0  0  0  0  0  0  0  0
  -20.8337    5.6215   22.4109 C   0  0  0  0  0  0  0  0  0  0  0  0
  -22.0061    4.7270   22.5892 C   0  0  0  0  0  0  0  0  0  0  0  0
  -21.8724    3.3314   22.3794 C   0  0  0  0  0  0  0  0  0  0  0  0
  -22.9475    2.5172   22.5383 N   0  0  0  0  0  0  0  0  0  0  0  0
  -24.1506    2.9950   22.9365 C   0  0  0  0  0  0  0  0  0  0  0  0
  -24.2988    4.3234   23.1671 N   0  0  0  0  0  0  0  0  0  0  0  0
  -23.2731    5.1991   23.0078 C   0  0  0  0  0  0  0  0  0  0  0  0
  -23.5084    6.5012   23.2688 N   0  0  0  0  0  0  0  0  0  0  0  0
  -22.7991    7.1588   23.1686 H   0  0  0  0  0  0  0  0  0  0  0  0
  -24.3884    6.7888   23.5618 H   0  0  0  0  0  0  0  0  0  0  0  0
  -20.5651    2.7126   22.0566 C   0  0  0  0  0  0  0  0  0  0  0  0
  -20.7125    3.7221   24.8627 F   0  0  0  0  0  0  0  0  0  0  0  0
  -19.4097    3.7801   24.8369 C   0  0  0  0  0  0  0  0  0  0  0  0
  -18.8001    3.8551   26.0982 C   0  0  0  0  0  0  0  0  0  0  0  0
  -17.4083    3.8588   26.1865 C   0  0  0  0  0  0  0  0  0  0  0  0
  -16.5968    3.8412   25.0327 C   0  0  0  0  0  0  0  0  0  0  0  0
  -17.2045    3.8681   23.7284 C   0  0  0  0  0  0  0  0  0  0  0  0
  -18.6473    3.7717   23.6304 C   0  0  0  0  0  0  0  0  0  0  0  0
  -15.1236    3.7677   25.2814 C   0  0  0  0  0  0  0  0  0  0  0  0
  -19.5309    3.9102   27.2343 N   0  0  0  0  0  0  0  0  0  0  0  0
  -20.5009    3.9117   27.1884 H   0  0  0  0  0  0  0  0  0  0  0  0
  -19.0882    3.9533   28.0966 H   0  0  0  0  0  0  0  0  0  0  0  0
  -16.3249    3.9179   22.4920 C   0  0  0  0  0  0  0  0  0  0  0  0
  -16.1826    2.7291   21.8258 F   0  0  0  0  0  0  0  0  0  0  0  0
  -16.7605    4.6971   21.4514 F   0  0  0  0  0  0  0  0  0  0  0  0
  -15.0798    4.3785   22.8362 F   0  0  0  0  0  0  0  0  0  0  0  0
  -25.1943    2.1400   23.1258 O   0  0  0  0  0  0  0  0  0  0  0  0
  -26.2489    2.7387   23.9097 C   0  0  0  0  0  0  0  0  0  0  0  0
  -27.4940    3.1071   23.0388 C   0  0  0  0  0  0  0  0  0  0  0  0
  -27.6801    4.5880   23.0409 N   0  0  0  0  0  0  0  0  0  0  0  0
  -27.5759    5.0637   21.6340 C   0  0  0  0  0  0  0  0  0  0  0  0
  -27.8847    3.8432   20.7512 C   0  0  0  0  0  0  0  0  0  0  0  0
  -27.2613    2.6939   21.5504 C   0  0  0  0  0  0  0  0  0  0  0  0
  -28.9423    4.9230   23.7602 C   0  0  0  0  0  0  0  0  0  0  0  0
  -29.3877    3.6464   24.4966 C   0  0  0  0  0  0  0  0  0  0  0  0
  -30.7553    3.5675   24.6346 F   0  0  0  0  0  0  0  0  0  0  0  0
  -28.8236    2.5259   23.6128 C   0  0  0  0  0  0  0  0  0  0  0  0
 14 15  1  0
 15 16  2  0
 16 17  1  0
 17 18  2  0
 18 19  1  0
 19 20  2  0
 15 20  1  0
  1 20  1  0
  1  2  1  0
  2  3  1  0
  3  4  1  0
  4  5  2  0
  5  6  1  0
  6  7  2  0
  7 29  1  0
 29 30  1  0
 31 30  1  0
 31 32  1  0
 32 33  1  0
 33 34  1  0
 34 35  1  0
 31 35  1  0
 32 36  1  0
 36 37  1  0
 37 38  1  0
 37 39  1  0
 31 39  1  0
  7  8  1  0
  8  9  2  0
  4  9  1  0
  9 10  1  0
 10 11  1  0
 10 12  1  0
  5 13  1  0
  1 13  1  0
 19 25  1  0
 25 26  1  0
 25 27  1  0
 25 28  1  0
 18 21  1  0
 16 22  1  0
 22 23  1  0
 22 24  1  0
M  END
> <minimizedAffinity>
-8.22962

> <CNNscore>
0.3002906144

> <CNNaffinity>
6.8485703468

> <CNN_VS>
2.0565614700

> <CNNaffinity_variance>
0.3471410275

$$$$



 39 43  0  0  0  0  0  0  0  0999 V2000
  -20.9531    3.4197   24.9058 C   0  0  0  0  0  0  0  0  0  0  0  0
  -21.7302    2.2396   24.5971 O   0  0  0  0  0  0  0  0  0  0  0  0
  -22.5013    2.2881   23.3798 C   0  0  0  0  0  0  0  0  0  0  0  0
  -23.2720    3.5474   23.2163 C   0  0  0  0  0  0  0  0  0  0  0  0
  -23.0188    4.6504   24.0701 C   0  0  0  0  0  0  0  0  0  0  0  0
  -23.7287    5.7983   23.9211 N   0  0  0  0  0  0  0  0  0  0  0  0
  -24.6552    5.9415   22.9436 C   0  0  0  0  0  0  0  0  0  0  0  0
  -24.8995    4.9093   22.0983 N   0  0  0  0  0  0  0  0  0  0  0  0
  -24.2428    3.7250   22.2017 C   0  0  0  0  0  0  0  0  0  0  0  0
  -24.5428    2.7569   21.3120 N   0  0  0  0  0  0  0  0  0  0  0  0
  -24.0929    1.8958   21.3517 H   0  0  0  0  0  0  0  0  0  0  0  0
  -25.2091    2.9163   20.6237 H   0  0  0  0  0  0  0  0  0  0  0  0
  -21.9424    4.6180   25.0881 C   0  0  0  0  0  0  0  0  0  0  0  0
  -18.5853    4.9924   25.5555 F   0  0  0  0  0  0  0  0  0  0  0  0
  -18.6074    4.3191   24.4385 C   0  0  0  0  0  0  0  0  0  0  0  0
  -17.4450    4.4329   23.6612 C   0  0  0  0  0  0  0  0  0  0  0  0
  -17.3396    3.7038   22.4770 C   0  0  0  0  0  0  0  0  0  0  0  0
  -18.3972    2.8928   22.0145 C   0  0  0  0  0  0  0  0  0  0  0  0
  -19.6359    2.8441   22.7455 C   0  0  0  0  0  0  0  0  0  0  0  0
  -19.7183    3.5258   24.0219 C   0  0  0  0  0  0  0  0  0  0  0  0
  -18.1129    2.1084   20.7729 C   0  0  0  0  0  0  0  0  0  0  0  0
  -16.4161    5.2237   24.0400 N   0  0  0  0  0  0  0  0  0  0  0  0
  -16.4763    5.7398   24.8603 H   0  0  0  0  0  0  0  0  0  0  0  0
  -15.6181    5.2810   23.4911 H   0  0  0  0  0  0  0  0  0  0  0  0
  -20.7934    2.0231   22.2061 C   0  0  0  0  0  0  0  0  0  0  0  0
  -21.5198    1.3443   23.1490 F   0  0  0  0  0  0  0  0  0  0  0  0
  -21.8140    2.7111   21.6022 F   0  0  0  0  0  0  0  0  0  0  0  0
  -20.3237    1.1232   21.2840 F   0  0  0  0  0  0  0  0  0  0  0  0
  -25.3165    7.1239   22.7999 O   0  0  0  0  0  0  0  0  0  0  0  0
  -26.1998    7.1144   21.6575 C   0  0  0  0  0  0  0  0  0  0  0  0
  -26.5628    8.5586   21.1813 C   0  0  0  0  0  0  0  0  0  0  0  0
  -26.3683    9.5164   22.3094 N   0  0  0  0  0  0  0  0  0  0  0  0
  -25.3466   10.5149   21.8904 C   0  0  0  0  0  0  0  0  0  0  0  0
  -25.3432   10.4961   20.3529 C   0  0  0  0  0  0  0  0  0  0  0  0
  -25.5974    9.0173   20.0421 C   0  0  0  0  0  0  0  0  0  0  0  0
  -27.6927   10.0604   22.7252 C   0  0  0  0  0  0  0  0  0  0  0  0
  -28.7653    9.1836   22.0534 C   0  0  0  0  0  0  0  0  0  0  0  0
  -29.9223    9.8796   21.7842 F   0  0  0  0  0  0  0  0  0  0  0  0
  -28.0635    8.7002   20.7773 C   0  0  0  0  0  0  0  0  0  0  0  0
 14 15  1  0
 15 16  2  0
 16 17  1  0
 17 18  2  0
 18 19  1  0
 19 20  2  0
 15 20  1  0
  1 20  1  0
  1  2  1  0
  2  3  1  0
  3  4  1  0
  4  5  2  0
  5  6  1  0
  6  7  2  0
  7 29  1  0
 29 30  1  0
 31 30  1  0
 31 32  1  0
 32 33  1  0
 33 34  1  0
 34 35  1  0
 31 35  1  0
 32 36  1  0
 36 37  1  0
 37 38  1  0
 37 39  1  0
 31 39  1  0
  7  8  1  0
  8  9  2  0
  4  9  1  0
  9 10  1  0
 10 11  1  0
 10 12  1  0
  5 13  1  0
  1 13  1  0
 19 25  1  0
 25 26  1  0
 25 27  1  0
 25 28  1  0
 18 21  1  0
 16 22  1  0
 22 23  1  0
 22 24  1  0
M  END
> <minimizedAffinity>
-7.77845

> <CNNscore>
0.2865466177

> <CNNaffinity>
6.6391501427

> <CNN_VS>
1.9024260044

> <CNNaffinity_variance>
0.0971103311

$$$$



 39 43  0  0  0  0  0  0  0  0999 V2000
  -18.8387    3.2143   21.6036 C   0  0  0  0  0  0  0  0  0  0  0  0
  -19.3511    4.4236   20.9980 O   0  0  0  0  0  0  0  0  0  0  0  0
  -20.2526    5.2058   21.8069 C   0  0  0  0  0  0  0  0  0  0  0  0
  -21.3090    4.3972   22.4677 C   0  0  0  0  0  0  0  0  0  0  0  0
  -21.2189    2.9825   22.4759 C   0  0  0  0  0  0  0  0  0  0  0  0
  -22.1891    2.2462   23.0765 N   0  0  0  0  0  0  0  0  0  0  0  0
  -23.2337    2.8275   23.7130 C   0  0  0  0  0  0  0  0  0  0  0  0
  -23.3306    4.1801   23.7402 N   0  0  0  0  0  0  0  0  0  0  0  0
  -22.4088    4.9787   23.1427 C   0  0  0  0  0  0  0  0  0  0  0  0
  -22.5798    6.3137   23.2281 N   0  0  0  0  0  0  0  0  0  0  0  0
  -21.9404    6.9189   22.8152 H   0  0  0  0  0  0  0  0  0  0  0  0
  -23.3425    6.6783   23.7062 H   0  0  0  0  0  0  0  0  0  0  0  0
  -20.0505    2.2717   21.9052 C   0  0  0  0  0  0  0  0  0  0  0  0
  -16.0318    3.7361   21.0116 F   0  0  0  0  0  0  0  0  0  0  0  0
  -16.4299    3.7666   22.2534 C   0  0  0  0  0  0  0  0  0  0  0  0
  -15.4243    4.0637   23.1853 C   0  0  0  0  0  0  0  0  0  0  0  0
  -15.7553    4.1824   24.5349 C   0  0  0  0  0  0  0  0  0  0  0  0
  -17.0707    3.9594   24.9932 C   0  0  0  0  0  0  0  0  0  0  0  0
  -18.0938    3.5533   24.0660 C   0  0  0  0  0  0  0  0  0  0  0  0
  -17.7776    3.5177   22.6520 C   0  0  0  0  0  0  0  0  0  0  0  0
  -17.2946    4.1998   26.4525 C   0  0  0  0  0  0  0  0  0  0  0  0
  -14.1408    4.2517   22.8044 N   0  0  0  0  0  0  0  0  0  0  0  0
  -13.8946    4.1691   21.8687 H   0  0  0  0  0  0  0  0  0  0  0  0
  -13.4628    4.4645   23.4651 H   0  0  0  0  0  0  0  0  0  0  0  0
  -19.4907    3.2489   24.5765 C   0  0  0  0  0  0  0  0  0  0  0  0
  -19.5946    3.0761   25.9317 F   0  0  0  0  0  0  0  0  0  0  0  0
  -20.4387    4.2254   24.4106 F   0  0  0  0  0  0  0  0  0  0  0  0
  -19.9689    2.1242   23.9540 F   0  0  0  0  0  0  0  0  0  0  0  0
  -24.1643    2.0551   24.3402 O   0  0  0  0  0  0  0  0  0  0  0  0
  -25.4814    2.6449   24.2873 C   0  0  0  0  0  0  0  0  0  0  0  0
  -26.0375    2.7149   22.8278 C   0  0  0  0  0  0  0  0  0  0  0  0
  -27.3400    1.9894   22.7580 N   0  0  0  0  0  0  0  0  0  0  0  0
  -28.3829    2.9625   22.3314 C   0  0  0  0  0  0  0  0  0  0  0  0
  -27.6332    4.0998   21.6180 C   0  0  0  0  0  0  0  0  0  0  0  0
  -26.3351    4.1950   22.4268 C   0  0  0  0  0  0  0  0  0  0  0  0
  -27.1808    0.7756   21.9070 C   0  0  0  0  0  0  0  0  0  0  0  0
  -25.6687    0.5700   21.7026 C   0  0  0  0  0  0  0  0  0  0  0  0
  -25.3763   -0.0293   20.4981 F   0  0  0  0  0  0  0  0  0  0  0  0
  -25.1126    1.9972   21.7959 C   0  0  0  0  0  0  0  0  0  0  0  0
 14 15  1  0
 15 16  2  0
 16 17  1  0
 17 18  2  0
 18 19  1  0
 19 20  2  0
 15 20  1  0
  1 20  1  0
  1  2  1  0
  2  3  1  0
  3  4  1  0
  4  5  2  0
  5  6  1  0
  6  7  2  0
  7 29  1  0
 29 30  1  0
 31 30  1  0
 31 32  1  0
 32 33  1  0
 33 34  1  0
 34 35  1  0
 31 35  1  0
 32 36  1  0
 36 37  1  0
 37 38  1  0
 37 39  1  0
 31 39  1  0
  7  8  1  0
  8  9  2  0
  4  9  1  0
  9 10  1  0
 10 11  1  0
 10 12  1  0
  5 13  1  0
  1 13  1  0
 19 25  1  0
 25 26  1  0
 25 27  1  0
 25 28  1  0
 18 21  1  0
 16 22  1  0
 22 23  1  0
 22 24  1  0
M  END
> <minimizedAffinity>
-6.21156

> <CNNscore>
0.1832435429

> <CNNaffinity>
6.5291657448

> <CNN_VS>
1.1964274645

> <CNNaffinity_variance>
0.2816849053

$$$$



 39 43  0  0  0  0  0  0  0  0999 V2000
  -21.9414    5.0710   24.8049 C   0  0  0  0  0  0  0  0  0  0  0  0
  -22.5806    4.4097   25.9211 O   0  0  0  0  0  0  0  0  0  0  0  0
  -23.0238    3.0576   25.6885 C   0  0  0  0  0  0  0  0  0  0  0  0
  -23.7665    2.8885   24.4132 C   0  0  0  0  0  0  0  0  0  0  0  0
  -23.7682    3.9282   23.4497 C   0  0  0  0  0  0  0  0  0  0  0  0
  -24.4525    3.7723   22.2872 N   0  0  0  0  0  0  0  0  0  0  0  0
  -25.1088    2.6242   21.9951 C   0  0  0  0  0  0  0  0  0  0  0  0
  -25.1027    1.6049   22.8899 N   0  0  0  0  0  0  0  0  0  0  0  0
  -24.4574    1.6986   24.0813 C   0  0  0  0  0  0  0  0  0  0  0  0
  -24.4961    0.6320   24.9058 N   0  0  0  0  0  0  0  0  0  0  0  0
  -24.0447    0.6593   25.7666 H   0  0  0  0  0  0  0  0  0  0  0  0
  -24.9734   -0.1715   24.6420 H   0  0  0  0  0  0  0  0  0  0  0  0
  -22.9804    5.1689   23.6393 C   0  0  0  0  0  0  0  0  0  0  0  0
  -20.1914    4.0710   26.9119 F   0  0  0  0  0  0  0  0  0  0  0  0
  -19.7571    4.0763   25.6819 C   0  0  0  0  0  0  0  0  0  0  0  0
  -18.4568    3.5764   25.5162 C   0  0  0  0  0  0  0  0  0  0  0  0
  -17.9192    3.4798   24.2330 C   0  0  0  0  0  0  0  0  0  0  0  0
  -18.6334    3.9220   23.0997 C   0  0  0  0  0  0  0  0  0  0  0  0
  -19.9269    4.5321   23.2606 C   0  0  0  0  0  0  0  0  0  0  0  0
  -20.5284    4.5515   24.5791 C   0  0  0  0  0  0  0  0  0  0  0  0
  -17.9654    3.6833   21.7827 C   0  0  0  0  0  0  0  0  0  0  0  0
  -17.7151    3.1721   26.5717 N   0  0  0  0  0  0  0  0  0  0  0  0
  -18.0749    3.2363   27.4714 H   0  0  0  0  0  0  0  0  0  0  0  0
  -16.8210    2.8218   26.4331 H   0  0  0  0  0  0  0  0  0  0  0  0
  -20.6603    5.0675   22.0439 C   0  0  0  0  0  0  0  0  0  0  0  0
  -21.3694    6.2219   22.2482 F   0  0  0  0  0  0  0  0  0  0  0  0
  -19.8909    5.4720   20.9837 F   0  0  0  0  0  0  0  0  0  0  0  0
  -21.5156    4.1070   21.5676 F   0  0  0  0  0  0  0  0  0  0  0  0
  -25.7484    2.4905   20.7996 O   0  0  0  0  0  0  0  0  0  0  0  0
  -27.1784    2.6432   20.9310 C   0  0  0  0  0  0  0  0  0  0  0  0
  -27.5620    3.6435   22.0697 C   0  0  0  0  0  0  0  0  0  0  0  0
  -28.9872    4.0563   21.9079 N   0  0  0  0  0  0  0  0  0  0  0  0
  -29.7238    3.6470   23.1352 C   0  0  0  0  0  0  0  0  0  0  0  0
  -28.6613    3.5033   24.2375 C   0  0  0  0  0  0  0  0  0  0  0  0
  -27.4598    2.9486   23.4649 C   0  0  0  0  0  0  0  0  0  0  0  0
  -29.0419    5.5041   21.5560 C   0  0  0  0  0  0  0  0  0  0  0  0
  -27.6098    5.9254   21.1791 C   0  0  0  0  0  0  0  0  0  0  0  0
  -27.3563    7.2476   21.4672 F   0  0  0  0  0  0  0  0  0  0  0  0
  -26.7415    4.9695   22.0081 C   0  0  0  0  0  0  0  0  0  0  0  0
 14 15  1  0
 15 16  2  0
 16 17  1  0
 17 18  2  0
 18 19  1  0
 19 20  2  0
 15 20  1  0
  1 20  1  0
  1  2  1  0
  2  3  1  0
  3  4  1  0
  4  5  2  0
  5  6  1  0
  6  7  2  0
  7 29  1  0
 29 30  1  0
 31 30  1  0
 31 32  1  0
 32 33  1  0
 33 34  1  0
 34 35  1  0
 31 35  1  0
 32 36  1  0
 36 37  1  0
 37 38  1  0
 37 39  1  0
 31 39  1  0
  7  8  1  0
  8  9  2  0
  4  9  1  0
  9 10  1  0
 10 11  1  0
 10 12  1  0
  5 13  1  0
  1 13  1  0
 19 25  1  0
 25 26  1  0
 25 27  1  0
 25 28  1  0
 18 21  1  0
 16 22  1  0
 22 23  1  0
 22 24  1  0
M  END
> <minimizedAffinity>
-6.57661

> <CNNscore>
0.1539016217

> <CNNaffinity>
6.1086807251

> <CNN_VS>
0.9401358962

> <CNNaffinity_variance>
0.2204897851

$$$$



 39 43  0  0  0  0  0  0  0  0999 V2000
  -21.8067    4.7030   25.4148 C   0  0  0  0  0  0  0  0  0  0  0  0
  -22.2904    3.7063   26.3446 O   0  0  0  0  0  0  0  0  0  0  0  0
  -22.7516    2.4690   25.7656 C   0  0  0  0  0  0  0  0  0  0  0  0
  -23.6536    2.6597   24.6009 C   0  0  0  0  0  0  0  0  0  0  0  0
  -23.7878    3.9410   24.0095 C   0  0  0  0  0  0  0  0  0  0  0  0
  -24.6172    4.1128   22.9480 N   0  0  0  0  0  0  0  0  0  0  0  0
  -25.2987    3.0779   22.4014 C   0  0  0  0  0  0  0  0  0  0  0  0
  -25.1692    1.8371   22.9336 N   0  0  0  0  0  0  0  0  0  0  0  0
  -24.3743    1.5955   24.0080 C   0  0  0  0  0  0  0  0  0  0  0  0
  -24.2981    0.3289   24.4649 N   0  0  0  0  0  0  0  0  0  0  0  0
  -23.7383    0.1152   25.2307 H   0  0  0  0  0  0  0  0  0  0  0  0
  -24.8007   -0.3782   24.0285 H   0  0  0  0  0  0  0  0  0  0  0  0
  -22.9898    5.1010   24.4715 C   0  0  0  0  0  0  0  0  0  0  0  0
  -19.6204    3.6333   27.0202 F   0  0  0  0  0  0  0  0  0  0  0  0
  -19.4326    3.8165   25.7425 C   0  0  0  0  0  0  0  0  0  0  0  0
  -18.1581    3.4576   25.2789 C   0  0  0  0  0  0  0  0  0  0  0  0
  -17.8726    3.5553   23.9173 C   0  0  0  0  0  0  0  0  0  0  0  0
  -18.8199    4.0564   22.9999 C   0  0  0  0  0  0  0  0  0  0  0  0
  -20.0962    4.5254   23.4717 C   0  0  0  0  0  0  0  0  0  0  0  0
  -20.4322    4.3416   24.8695 C   0  0  0  0  0  0  0  0  0  0  0  0
  -18.4037    4.0290   21.5634 C   0  0  0  0  0  0  0  0  0  0  0  0
  -17.2014    3.0053   26.1203 N   0  0  0  0  0  0  0  0  0  0  0  0
  -17.3845    2.9350   27.0713 H   0  0  0  0  0  0  0  0  0  0  0  0
  -16.3293    2.7549   25.7766 H   0  0  0  0  0  0  0  0  0  0  0  0
  -21.0845    5.1264   22.4884 C   0  0  0  0  0  0  0  0  0  0  0  0
  -21.9678    6.0276   23.0224 F   0  0  0  0  0  0  0  0  0  0  0  0
  -20.5666    5.9020   21.4835 F   0  0  0  0  0  0  0  0  0  0  0  0
  -21.7961    4.1212   21.8850 F   0  0  0  0  0  0  0  0  0  0  0  0
  -26.0882    3.2830   21.3102 O   0  0  0  0  0  0  0  0  0  0  0  0
  -27.4893    3.1154   21.6170 C   0  0  0  0  0  0  0  0  0  0  0  0
  -28.1999    4.4807   21.8914 C   0  0  0  0  0  0  0  0  0  0  0  0
  -29.6743    4.3138   21.7303 N   0  0  0  0  0  0  0  0  0  0  0  0
  -30.3170    4.6486   23.0308 C   0  0  0  0  0  0  0  0  0  0  0  0
  -29.3116    5.5361   23.7830 C   0  0  0  0  0  0  0  0  0  0  0  0
  -27.9659    4.9313   23.3687 C   0  0  0  0  0  0  0  0  0  0  0  0
  -30.1304    5.0969   20.5465 C   0  0  0  0  0  0  0  0  0  0  0  0
  -28.8664    5.5034   19.7672 C   0  0  0  0  0  0  0  0  0  0  0  0
  -29.0216    6.6953   19.0959 F   0  0  0  0  0  0  0  0  0  0  0  0
  -27.7978    5.5858   20.8655 C   0  0  0  0  0  0  0  0  0  0  0  0
 14 15  1  0
 15 16  2  0
 16 17  1  0
 17 18  2  0
 18 19  1  0
 19 20  2  0
 15 20  1  0
  1 20  1  0
  1  2  1  0
  2  3  1  0
  3  4  1  0
  4  5  2  0
  5  6  1  0
  6  7  2  0
  7 29  1  0
 29 30  1  0
 31 30  1  0
 31 32  1  0
 32 33  1  0
 33 34  1  0
 34 35  1  0
 31 35  1  0
 32 36  1  0
 36 37  1  0
 37 38  1  0
 37 39  1  0
 31 39  1  0
  7  8  1  0
  8  9  2  0
  4  9  1  0
  9 10  1  0
 10 11  1  0
 10 12  1  0
  5 13  1  0
  1 13  1  0
 19 25  1  0
 25 26  1  0
 25 27  1  0
 25 28  1  0
 18 21  1  0
 16 22  1  0
 22 23  1  0
 22 24  1  0
M  END
> <minimizedAffinity>
-7.51525

> <CNNscore>
0.1382098645

> <CNNaffinity>
6.0574631691

> <CNN_VS>
0.8372011781

> <CNNaffinity_variance>
0.2119539529

$$$$



 39 43  0  0  0  0  0  0  0  0999 V2000
  -23.5164    3.8463   23.7891 C   0  0  0  0  0  0  0  0  0  0  0  0
  -24.3514    2.9554   24.5641 O   0  0  0  0  0  0  0  0  0  0  0  0
  -25.5221    2.4421   23.8972 C   0  0  0  0  0  0  0  0  0  0  0  0
  -26.2991    3.4841   23.1781 C   0  0  0  0  0  0  0  0  0  0  0  0
  -25.7459    4.7748   22.9846 C   0  0  0  0  0  0  0  0  0  0  0  0
  -26.4611    5.7265   22.3313 N   0  0  0  0  0  0  0  0  0  0  0  0
  -27.6861    5.4682   21.8148 C   0  0  0  0  0  0  0  0  0  0  0  0
  -28.2280    4.2339   21.9655 N   0  0  0  0  0  0  0  0  0  0  0  0
  -27.5792    3.2401   22.6256 C   0  0  0  0  0  0  0  0  0  0  0  0
  -28.1894    2.0411   22.7191 N   0  0  0  0  0  0  0  0  0  0  0  0
  -27.7565    1.3036   23.1820 H   0  0  0  0  0  0  0  0  0  0  0  0
  -29.0650    1.9069   22.3210 H   0  0  0  0  0  0  0  0  0  0  0  0
  -24.3668    5.1051   23.4146 C   0  0  0  0  0  0  0  0  0  0  0  0
  -24.6543    2.4362   21.5047 F   0  0  0  0  0  0  0  0  0  0  0  0
  -23.3595    2.4381   21.6626 C   0  0  0  0  0  0  0  0  0  0  0  0
  -22.6465    1.7419   20.6751 C   0  0  0  0  0  0  0  0  0  0  0  0
  -21.2525    1.7341   20.7149 C   0  0  0  0  0  0  0  0  0  0  0  0
  -20.5416    2.3677   21.7557 C   0  0  0  0  0  0  0  0  0  0  0  0
  -21.2580    2.9989   22.8325 C   0  0  0  0  0  0  0  0  0  0  0  0
  -22.7021    3.0895   22.7491 C   0  0  0  0  0  0  0  0  0  0  0  0
  -19.0516    2.3459   21.6253 C   0  0  0  0  0  0  0  0  0  0  0  0
  -23.2792    1.0877   19.6754 N   0  0  0  0  0  0  0  0  0  0  0  0
  -24.2495    1.0815   19.6364 H   0  0  0  0  0  0  0  0  0  0  0  0
  -22.7658    0.6195   18.9982 H   0  0  0  0  0  0  0  0  0  0  0  0
  -20.4874    3.6193   23.9841 C   0  0  0  0  0  0  0  0  0  0  0  0
  -21.1414    3.6306   25.1881 F   0  0  0  0  0  0  0  0  0  0  0  0
  -19.3342    2.9868   24.3712 F   0  0  0  0  0  0  0  0  0  0  0  0
  -20.1426    4.9068   23.6612 F   0  0  0  0  0  0  0  0  0  0  0  0
  -28.3543    6.4373   21.1289 O   0  0  0  0  0  0  0  0  0  0  0  0
  -27.4653    7.4650   20.6402 C   0  0  0  0  0  0  0  0  0  0  0  0
  -27.5614    8.7776   21.4842 C   0  0  0  0  0  0  0  0  0  0  0  0
  -28.0347    9.8936   20.6134 N   0  0  0  0  0  0  0  0  0  0  0  0
  -29.3136   10.4041   21.1793 C   0  0  0  0  0  0  0  0  0  0  0  0
  -29.3165    9.9883   22.6596 C   0  0  0  0  0  0  0  0  0  0  0  0
  -28.6246    8.6216   22.6180 C   0  0  0  0  0  0  0  0  0  0  0  0
  -26.9377   10.8906   20.4538 C   0  0  0  0  0  0  0  0  0  0  0  0
  -25.6513   10.2250   20.9756 C   0  0  0  0  0  0  0  0  0  0  0  0
  -24.7625   11.1356   21.5012 F   0  0  0  0  0  0  0  0  0  0  0  0
  -26.1767    9.2440   22.0322 C   0  0  0  0  0  0  0  0  0  0  0  0
 14 15  1  0
 15 16  2  0
 16 17  1  0
 17 18  2  0
 18 19  1  0
 19 20  2  0
 15 20  1  0
  1 20  1  0
  1  2  1  0
  2  3  1  0
  3  4  1  0
  4  5  2  0
  5  6  1  0
  6  7  2  0
  7 29  1  0
 29 30  1  0
 31 30  1  0
 31 32  1  0
 32 33  1  0
 33 34  1  0
 34 35  1  0
 31 35  1  0
 32 36  1  0
 36 37  1  0
 37 38  1  0
 37 39  1  0
 31 39  1  0
  7  8  1  0
  8  9  2  0
  4  9  1  0
  9 10  1  0
 10 11  1  0
 10 12  1  0
  5 13  1  0
  1 13  1  0
 19 25  1  0
 25 26  1  0
 25 27  1  0
 25 28  1  0
 18 21  1  0
 16 22  1  0
 22 23  1  0
 22 24  1  0
M  END
> <minimizedAffinity>
-9.52943

> <CNNscore>
0.1032935008

> <CNNaffinity>
6.2483024597

> <CNN_VS>
0.6454090476

> <CNNaffinity_variance>
0.1567265391

$$$$
