


 40 46  0  0  0  0  0  0  0  0999 V2000
  -19.9642    3.9828   23.1956 C   0  0  0  0  0  0  0  0  0  0  0  0
  -20.6162    2.8081   23.0096 N   0  0  0  0  0  0  0  0  0  0  0  0
  -21.9561    2.7082   22.8353 C   0  0  0  0  0  0  0  0  0  0  0  0
  -22.7875    3.8521   22.8775 C   0  0  0  0  0  0  0  0  0  0  0  0
  -24.2184    3.8535   22.8039 C   0  0  0  0  0  0  0  0  0  0  0  0
  -24.8229    5.0728   22.7212 N   0  0  0  0  0  0  0  0  0  0  0  0
  -24.1697    6.2565   22.7259 C   0  0  0  0  0  0  0  0  0  0  0  0
  -22.8265    6.2607   22.8841 N   0  0  0  0  0  0  0  0  0  0  0  0
  -22.1147    5.1088   22.9734 C   0  0  0  0  0  0  0  0  0  0  0  0
  -20.7122    5.1811   23.1519 C   0  0  0  0  0  0  0  0  0  0  0  0
  -20.1185    6.3407   23.2989 F   0  0  0  0  0  0  0  0  0  0  0  0
  -25.0742    2.7479   22.8172 N   0  0  0  0  0  0  0  0  0  0  0  0
  -24.5347    1.3906   22.8862 C   0  0  0  0  0  0  0  0  0  0  0  0
  -25.4118    0.3384   22.1340 C   0  0  0  0  0  0  0  0  0  0  0  0
  -25.5661    0.6051   20.6167 C   0  0  0  0  0  0  0  0  0  0  0  0
  -26.7644    1.5731   20.5199 C   0  0  0  0  0  0  0  0  0  0  0  0
  -27.2259    1.7172   21.9886 C   0  0  0  0  0  0  0  0  0  0  0  0
  -26.5242    2.8759   22.7581 C   0  0  0  0  0  0  0  0  0  0  0  0
  -26.7954    0.4569   22.6191 N   0  0  0  0  0  0  0  0  0  0  0  0
  -27.3302   -0.2963   22.1835 H   0  0  0  0  0  0  0  0  0  0  0  0
  -16.2793    3.8503   26.3352 O   0  0  0  0  0  0  0  0  0  0  0  0
  -16.7144    3.8662   25.0541 C   0  0  0  0  0  0  0  0  0  0  0  0
  -18.0935    3.8504   24.7716 C   0  0  0  0  0  0  0  0  0  0  0  0
  -18.5616    3.9206   23.4367 C   0  0  0  0  0  0  0  0  0  0  0  0
  -17.6074    3.9696   22.3768 C   0  0  0  0  0  0  0  0  0  0  0  0
  -16.2243    3.9578   22.6721 C   0  0  0  0  0  0  0  0  0  0  0  0
  -15.7822    3.9159   24.0049 C   0  0  0  0  0  0  0  0  0  0  0  0
  -16.3307    4.7868   26.6226 H   0  0  0  0  0  0  0  0  0  0  0  0
  -17.9642    4.0203   21.1168 C   0  0  0  0  0  0  0  0  0  0  0  0
  -18.2813    4.0704   19.9670 C   0  0  0  0  0  0  0  0  0  0  0  0
  -24.8593    7.4260   22.5961 O   0  0  0  0  0  0  0  0  0  0  0  0
  -26.0961    7.2759   21.8647 C   0  0  0  0  0  0  0  0  0  0  0  0
  -26.5068    8.6458   21.2334 C   0  0  0  0  0  0  0  0  0  0  0  0
  -25.5401    9.0543   20.0836 C   0  0  0  0  0  0  0  0  0  0  0  0
  -25.4341   10.5802   20.2103 C   0  0  0  0  0  0  0  0  0  0  0  0
  -25.5373   10.8143   21.7259 C   0  0  0  0  0  0  0  0  0  0  0  0
  -26.4076    9.7284   22.2559 N   0  0  0  0  0  0  0  0  0  0  0  0
  -27.7787   10.1315   22.6786 C   0  0  0  0  0  0  0  0  0  0  0  0
  -28.7503    9.1149   22.0593 C   0  0  0  0  0  0  0  0  0  0  0  0
  -28.0055    8.6498   20.8025 C   0  0  0  0  0  0  0  0  0  0  0  0
 21 22  1  0
 22 23  2  0
 23 24  1  0
 24 25  2  0
 25 26  1  0
 26 27  2  0
 22 27  1  0
 25 29  1  0
 29 30  3  0
 24  1  1  0
  1  2  2  0
  2  3  1  0
  3  4  2  0
  4  5  1  0
  5  6  2  0
  6  7  1  0
  7 31  1  0
 31 32  1  0
 32 33  1  0
 33 34  1  0
 34 35  1  0
 35 36  1  0
 36 37  1  0
 33 37  1  0
 37 38  1  0
 38 39  1  0
 39 40  1  0
 33 40  1  0
  7  8  2  0
  8  9  1  0
  4  9  1  0
  9 10  2  0
  1 10  1  0
 10 11  1  0
  5 12  1  0
 12 13  1  0
 13 14  1  0
 14 15  1  0
 15 16  1  0
 16 17  1  0
 17 18  1  0
 12 18  1  0
 17 19  1  0
 14 19  1  0
 21 28  1  0
 19 20  1  0
M  END
> <minimizedAffinity>
-11.70387

> <CNNscore>
0.7584694624

> <CNNaffinity>
8.0938348770

> <CNN_VS>
6.1389265060

> <CNNaffinity_variance>
0.0009448778

$$$$



 40 46  0  0  0  0  0  0  0  0999 V2000
  -19.9750    3.9757   23.1664 C   0  0  0  0  0  0  0  0  0  0  0  0
  -20.6100    2.7929   22.9730 N   0  0  0  0  0  0  0  0  0  0  0  0
  -21.9488    2.6746   22.8006 C   0  0  0  0  0  0  0  0  0  0  0  0
  -22.7967    3.8059   22.8529 C   0  0  0  0  0  0  0  0  0  0  0  0
  -24.2276    3.7869   22.7821 C   0  0  0  0  0  0  0  0  0  0  0  0
  -24.8500    4.9978   22.7096 N   0  0  0  0  0  0  0  0  0  0  0  0
  -24.2143    6.1909   22.7217 C   0  0  0  0  0  0  0  0  0  0  0  0
  -22.8710    6.2136   22.8773 N   0  0  0  0  0  0  0  0  0  0  0  0
  -22.1421    5.0716   22.9567 C   0  0  0  0  0  0  0  0  0  0  0  0
  -20.7405    5.1632   23.1330 C   0  0  0  0  0  0  0  0  0  0  0  0
  -20.1635    6.3302   23.2874 F   0  0  0  0  0  0  0  0  0  0  0  0
  -25.0671    2.6688   22.7889 N   0  0  0  0  0  0  0  0  0  0  0  0
  -24.5071    1.3182   22.7671 C   0  0  0  0  0  0  0  0  0  0  0  0
  -25.4089    0.2879   22.0137 C   0  0  0  0  0  0  0  0  0  0  0  0
  -25.6464    0.6207   20.5205 C   0  0  0  0  0  0  0  0  0  0  0  0
  -26.8606    1.5736   20.5309 C   0  0  0  0  0  0  0  0  0  0  0  0
  -27.2460    1.6438   22.0267 C   0  0  0  0  0  0  0  0  0  0  0  0
  -26.5197    2.7770   22.8112 C   0  0  0  0  0  0  0  0  0  0  0  0
  -26.7665    0.3629   22.5751 N   0  0  0  0  0  0  0  0  0  0  0  0
  -27.3136   -0.3779   22.1337 H   0  0  0  0  0  0  0  0  0  0  0  0
  -16.2821    3.8705   26.2977 O   0  0  0  0  0  0  0  0  0  0  0  0
  -16.7200    3.8912   25.0177 C   0  0  0  0  0  0  0  0  0  0  0  0
  -18.0993    3.8574   24.7376 C   0  0  0  0  0  0  0  0  0  0  0  0
  -18.5711    3.9322   23.4043 C   0  0  0  0  0  0  0  0  0  0  0  0
  -17.6199    4.0048   22.3431 C   0  0  0  0  0  0  0  0  0  0  0  0
  -16.2362    4.0110   22.6356 C   0  0  0  0  0  0  0  0  0  0  0  0
  -15.7908    3.9640   23.9672 C   0  0  0  0  0  0  0  0  0  0  0  0
  -16.3469    4.8036   26.5934 H   0  0  0  0  0  0  0  0  0  0  0  0
  -17.9800    4.0612   21.0842 C   0  0  0  0  0  0  0  0  0  0  0  0
  -18.3042    4.1045   19.9361 C   0  0  0  0  0  0  0  0  0  0  0  0
  -24.9212    7.3511   22.6019 O   0  0  0  0  0  0  0  0  0  0  0  0
  -25.6501    7.4441   21.3581 C   0  0  0  0  0  0  0  0  0  0  0  0
  -27.1854    7.4954   21.6474 C   0  0  0  0  0  0  0  0  0  0  0  0
  -27.6641    6.2220   22.4042 C   0  0  0  0  0  0  0  0  0  0  0  0
  -29.0620    5.9513   21.8313 C   0  0  0  0  0  0  0  0  0  0  0  0
  -28.9356    6.4061   20.3686 C   0  0  0  0  0  0  0  0  0  0  0  0
  -27.9456    7.5184   20.3631 N   0  0  0  0  0  0  0  0  0  0  0  0
  -28.4941    8.8863   20.1419 C   0  0  0  0  0  0  0  0  0  0  0  0
  -27.8696    9.7932   21.2136 C   0  0  0  0  0  0  0  0  0  0  0  0
  -27.5877    8.8204   22.3646 C   0  0  0  0  0  0  0  0  0  0  0  0
 21 22  1  0
 22 23  2  0
 23 24  1  0
 24 25  2  0
 25 26  1  0
 26 27  2  0
 22 27  1  0
 25 29  1  0
 29 30  3  0
 24  1  1  0
  1  2  2  0
  2  3  1  0
  3  4  2  0
  4  5  1  0
  5  6  2  0
  6  7  1  0
  7 31  1  0
 31 32  1  0
 32 33  1  0
 33 34  1  0
 34 35  1  0
 35 36  1  0
 36 37  1  0
 33 37  1  0
 37 38  1  0
 38 39  1  0
 39 40  1  0
 33 40  1  0
  7  8  2  0
  8  9  1  0
  4  9  1  0
  9 10  2  0
  1 10  1  0
 10 11  1  0
  5 12  1  0
 12 13  1  0
 13 14  1  0
 14 15  1  0
 15 16  1  0
 16 17  1  0
 17 18  1  0
 12 18  1  0
 17 19  1  0
 14 19  1  0
 21 28  1  0
 19 20  1  0
M  END
> <minimizedAffinity>
-10.75169

> <CNNscore>
0.3601843417

> <CNNaffinity>
7.5418224335

> <CNN_VS>
2.7164463997

> <CNNaffinity_variance>
0.0926850736

$$$$



 40 46  0  0  0  0  0  0  0  0999 V2000
  -19.7851    4.0492   23.2301 C   0  0  0  0  0  0  0  0  0  0  0  0
  -20.4006    2.8549   23.0445 N   0  0  0  0  0  0  0  0  0  0  0  0
  -21.7372    2.7135   22.8726 C   0  0  0  0  0  0  0  0  0  0  0  0
  -22.6035    3.8310   22.9171 C   0  0  0  0  0  0  0  0  0  0  0  0
  -24.0340    3.7880   22.8461 C   0  0  0  0  0  0  0  0  0  0  0  0
  -24.6762    4.9880   22.7654 N   0  0  0  0  0  0  0  0  0  0  0  0
  -24.0601    6.1914   22.7697 C   0  0  0  0  0  0  0  0  0  0  0  0
  -22.7174    6.2372   22.9254 N   0  0  0  0  0  0  0  0  0  0  0  0
  -21.9699    5.1080   23.0126 C   0  0  0  0  0  0  0  0  0  0  0  0
  -20.5700    5.2237   23.1886 C   0  0  0  0  0  0  0  0  0  0  0  0
  -20.0123    6.4011   23.3353 F   0  0  0  0  0  0  0  0  0  0  0  0
  -24.8549    2.6564   22.8602 N   0  0  0  0  0  0  0  0  0  0  0  0
  -24.2743    1.3155   22.8050 C   0  0  0  0  0  0  0  0  0  0  0  0
  -25.1795    0.2806   22.0622 C   0  0  0  0  0  0  0  0  0  0  0  0
  -25.4626    0.6292   20.5806 C   0  0  0  0  0  0  0  0  0  0  0  0
  -26.6911    1.5619   20.6365 C   0  0  0  0  0  0  0  0  0  0  0  0
  -27.0370    1.6060   22.1429 C   0  0  0  0  0  0  0  0  0  0  0  0
  -26.3080    2.7406   22.9230 C   0  0  0  0  0  0  0  0  0  0  0  0
  -26.5224    0.3261   22.6608 N   0  0  0  0  0  0  0  0  0  0  0  0
  -27.0694   -0.4177   22.2242 H   0  0  0  0  0  0  0  0  0  0  0  0
  -15.2682    3.8267   21.4974 O   0  0  0  0  0  0  0  0  0  0  0  0
  -16.1029    3.9042   22.5595 C   0  0  0  0  0  0  0  0  0  0  0  0
  -17.4938    4.0022   22.3649 C   0  0  0  0  0  0  0  0  0  0  0  0
  -18.3808    4.0304   23.4686 C   0  0  0  0  0  0  0  0  0  0  0  0
  -17.8364    3.9957   24.7872 C   0  0  0  0  0  0  0  0  0  0  0  0
  -16.4358    3.9244   24.9702 C   0  0  0  0  0  0  0  0  0  0  0  0
  -15.5758    3.8695   23.8607 C   0  0  0  0  0  0  0  0  0  0  0  0
  -15.2816    2.8790   21.2447 H   0  0  0  0  0  0  0  0  0  0  0  0
  -18.5926    4.0337   25.8570 C   0  0  0  0  0  0  0  0  0  0  0  0
  -19.2862    4.0613   26.8282 C   0  0  0  0  0  0  0  0  0  0  0  0
  -24.7859    7.3391   22.6420 O   0  0  0  0  0  0  0  0  0  0  0  0
  -26.0267    7.1477   21.9273 C   0  0  0  0  0  0  0  0  0  0  0  0
  -26.4539    8.4860   21.2416 C   0  0  0  0  0  0  0  0  0  0  0  0
  -25.5063    8.8473   20.0605 C   0  0  0  0  0  0  0  0  0  0  0  0
  -25.4067   10.3778   20.1174 C   0  0  0  0  0  0  0  0  0  0  0  0
  -25.4891   10.6789   21.6224 C   0  0  0  0  0  0  0  0  0  0  0  0
  -26.3457    9.6137   22.2132 N   0  0  0  0  0  0  0  0  0  0  0  0
  -27.7127   10.0288   22.6377 C   0  0  0  0  0  0  0  0  0  0  0  0
  -28.6877    8.9809   22.0788 C   0  0  0  0  0  0  0  0  0  0  0  0
  -27.9588    8.4636   20.8332 C   0  0  0  0  0  0  0  0  0  0  0  0
 21 22  1  0
 22 23  2  0
 23 24  1  0
 24 25  2  0
 25 26  1  0
 26 27  2  0
 22 27  1  0
 25 29  1  0
 29 30  3  0
 24  1  1  0
  1  2  2  0
  2  3  1  0
  3  4  2  0
  4  5  1  0
  5  6  2  0
  6  7  1  0
  7 31  1  0
 31 32  1  0
 32 33  1  0
 33 34  1  0
 34 35  1  0
 35 36  1  0
 36 37  1  0
 33 37  1  0
 37 38  1  0
 38 39  1  0
 39 40  1  0
 33 40  1  0
  7  8  2  0
  8  9  1  0
  4  9  1  0
  9 10  2  0
  1 10  1  0
 10 11  1  0
  5 12  1  0
 12 13  1  0
 13 14  1  0
 14 15  1  0
 15 16  1  0
 16 17  1  0
 17 18  1  0
 12 18  1  0
 17 19  1  0
 14 19  1  0
 21 28  1  0
 19 20  1  0
M  END
> <minimizedAffinity>
-10.27189

> <CNNscore>
0.2074950933

> <CNNaffinity>
7.2148170471

> <CNN_VS>
1.4970390797

> <CNNaffinity_variance>
0.1205567718

$$$$



 40 46  0  0  0  0  0  0  0  0999 V2000
  -23.4111    4.3376   23.4645 C   0  0  0  0  0  0  0  0  0  0  0  0
  -23.4274    5.6282   23.0478 N   0  0  0  0  0  0  0  0  0  0  0  0
  -24.5467    6.2770   22.6449 C   0  0  0  0  0  0  0  0  0  0  0  0
  -25.7973    5.6176   22.5946 C   0  0  0  0  0  0  0  0  0  0  0  0
  -27.0201    6.1732   22.0955 C   0  0  0  0  0  0  0  0  0  0  0  0
  -28.1447    5.4211   22.2648 N   0  0  0  0  0  0  0  0  0  0  0  0
  -28.1726    4.1996   22.8434 C   0  0  0  0  0  0  0  0  0  0  0  0
  -27.0074    3.6357   23.2353 N   0  0  0  0  0  0  0  0  0  0  0  0
  -25.8239    4.2897   23.1211 C   0  0  0  0  0  0  0  0  0  0  0  0
  -24.6375    3.6391   23.5372 C   0  0  0  0  0  0  0  0  0  0  0  0
  -24.6716    2.3989   23.9610 F   0  0  0  0  0  0  0  0  0  0  0  0
  -27.1970    7.3969   21.4427 N   0  0  0  0  0  0  0  0  0  0  0  0
  -26.2161    7.8673   20.4656 C   0  0  0  0  0  0  0  0  0  0  0  0
  -26.0782    9.4235   20.4289 C   0  0  0  0  0  0  0  0  0  0  0  0
  -25.6114   10.0536   21.7638 C   0  0  0  0  0  0  0  0  0  0  0  0
  -26.9143   10.2556   22.5662 C   0  0  0  0  0  0  0  0  0  0  0  0
  -28.0133    9.7827   21.5866 C   0  0  0  0  0  0  0  0  0  0  0  0
  -28.3409    8.2634   21.6941 C   0  0  0  0  0  0  0  0  0  0  0  0
  -27.4190   10.0034   20.2564 N   0  0  0  0  0  0  0  0  0  0  0  0
  -27.2964   11.0111   20.1443 H   0  0  0  0  0  0  0  0  0  0  0  0
  -19.5397    4.1808   26.3698 O   0  0  0  0  0  0  0  0  0  0  0  0
  -20.1897    3.7245   25.2743 C   0  0  0  0  0  0  0  0  0  0  0  0
  -21.4765    4.2020   24.9610 C   0  0  0  0  0  0  0  0  0  0  0  0
  -22.1447    3.7717   23.7887 C   0  0  0  0  0  0  0  0  0  0  0  0
  -21.5046    2.8137   22.9468 C   0  0  0  0  0  0  0  0  0  0  0  0
  -20.2231    2.3212   23.2863 C   0  0  0  0  0  0  0  0  0  0  0  0
  -19.5667    2.7827   24.4395 C   0  0  0  0  0  0  0  0  0  0  0  0
  -19.1359    5.0265   26.0799 H   0  0  0  0  0  0  0  0  0  0  0  0
  -22.0665    2.3571   21.8543 C   0  0  0  0  0  0  0  0  0  0  0  0
  -22.5801    1.9498   20.8566 C   0  0  0  0  0  0  0  0  0  0  0  0
  -29.3552    3.5400   23.0068 O   0  0  0  0  0  0  0  0  0  0  0  0
  -29.6503    3.2407   24.3889 C   0  0  0  0  0  0  0  0  0  0  0  0
  -31.0997    3.7134   24.7345 C   0  0  0  0  0  0  0  0  0  0  0  0
  -31.8666    2.6388   25.5594 C   0  0  0  0  0  0  0  0  0  0  0  0
  -33.3115    2.7403   25.0518 C   0  0  0  0  0  0  0  0  0  0  0  0
  -33.1373    3.1027   23.5682 C   0  0  0  0  0  0  0  0  0  0  0  0
  -31.8860    3.9051   23.4804 N   0  0  0  0  0  0  0  0  0  0  0  0
  -32.0563    5.3637   23.2259 C   0  0  0  0  0  0  0  0  0  0  0  0
  -31.1604    6.0975   24.2358 C   0  0  0  0  0  0  0  0  0  0  0  0
  -31.0961    5.1175   25.4132 C   0  0  0  0  0  0  0  0  0  0  0  0
 21 22  1  0
 22 23  2  0
 23 24  1  0
 24 25  2  0
 25 26  1  0
 26 27  2  0
 22 27  1  0
 25 29  1  0
 29 30  3  0
 24  1  1  0
  1  2  2  0
  2  3  1  0
  3  4  2  0
  4  5  1  0
  5  6  2  0
  6  7  1  0
  7 31  1  0
 31 32  1  0
 32 33  1  0
 33 34  1  0
 34 35  1  0
 35 36  1  0
 36 37  1  0
 33 37  1  0
 37 38  1  0
 38 39  1  0
 39 40  1  0
 33 40  1  0
  7  8  2  0
  8  9  1  0
  4  9  1  0
  9 10  2  0
  1 10  1  0
 10 11  1  0
  5 12  1  0
 12 13  1  0
 13 14  1  0
 14 15  1  0
 15 16  1  0
 16 17  1  0
 17 18  1  0
 12 18  1  0
 17 19  1  0
 14 19  1  0
 21 28  1  0
 19 20  1  0
M  END
> <minimizedAffinity>
-8.76791

> <CNNscore>
0.1209988520

> <CNNaffinity>
6.4555549622

> <CNN_VS>
0.7811147571

> <CNNaffinity_variance>
0.0866675675

$$$$



 40 46  0  0  0  0  0  0  0  0999 V2000
  -23.7928    3.8700   23.3788 C   0  0  0  0  0  0  0  0  0  0  0  0
  -24.7933    2.9884   23.6261 N   0  0  0  0  0  0  0  0  0  0  0  0
  -26.1064    3.2652   23.4388 C   0  0  0  0  0  0  0  0  0  0  0  0
  -26.5303    4.5412   22.9988 C   0  0  0  0  0  0  0  0  0  0  0  0
  -27.8895    4.9733   22.8610 C   0  0  0  0  0  0  0  0  0  0  0  0
  -28.0852    6.1948   22.2879 N   0  0  0  0  0  0  0  0  0  0  0  0
  -27.0953    7.0154   21.8700 C   0  0  0  0  0  0  0  0  0  0  0  0
  -25.8106    6.6482   22.0794 N   0  0  0  0  0  0  0  0  0  0  0  0
  -25.4915    5.4533   22.6379 C   0  0  0  0  0  0  0  0  0  0  0  0
  -24.1277    5.1340   22.8428 C   0  0  0  0  0  0  0  0  0  0  0  0
  -23.1901    6.0065   22.5625 F   0  0  0  0  0  0  0  0  0  0  0  0
  -29.0450    4.2924   23.2557 N   0  0  0  0  0  0  0  0  0  0  0  0
  -30.3643    4.7563   22.8285 C   0  0  0  0  0  0  0  0  0  0  0  0
  -31.4876    4.4751   23.8779 C   0  0  0  0  0  0  0  0  0  0  0  0
  -31.2701    5.1674   25.2455 C   0  0  0  0  0  0  0  0  0  0  0  0
  -30.3807    4.1828   26.0340 C   0  0  0  0  0  0  0  0  0  0  0  0
  -30.2276    2.9869   25.0659 C   0  0  0  0  0  0  0  0  0  0  0  0
  -29.0084    3.1082   24.1036 C   0  0  0  0  0  0  0  0  0  0  0  0
  -31.4423    3.0485   24.2340 N   0  0  0  0  0  0  0  0  0  0  0  0
  -32.2380    2.8686   24.8483 H   0  0  0  0  0  0  0  0  0  0  0  0
  -19.9742    4.0328   26.3530 O   0  0  0  0  0  0  0  0  0  0  0  0
  -20.5422    3.5701   25.2155 C   0  0  0  0  0  0  0  0  0  0  0  0
  -21.8775    3.8917   24.9059 C   0  0  0  0  0  0  0  0  0  0  0  0
  -22.4660    3.4575   23.6930 C   0  0  0  0  0  0  0  0  0  0  0  0
  -21.6916    2.6536   22.8040 C   0  0  0  0  0  0  0  0  0  0  0  0
  -20.3599    2.3146   23.1387 C   0  0  0  0  0  0  0  0  0  0  0  0
  -19.7870    2.7794   24.3342 C   0  0  0  0  0  0  0  0  0  0  0  0
  -19.6843    4.9427   26.1288 H   0  0  0  0  0  0  0  0  0  0  0  0
  -22.1723    2.2021   21.6714 C   0  0  0  0  0  0  0  0  0  0  0  0
  -22.6107    1.7826   20.6433 C   0  0  0  0  0  0  0  0  0  0  0  0
  -27.3910    8.2032   21.2684 O   0  0  0  0  0  0  0  0  0  0  0  0
  -26.2218    8.8975   20.7810 C   0  0  0  0  0  0  0  0  0  0  0  0
  -26.3077   10.4109   21.1632 C   0  0  0  0  0  0  0  0  0  0  0  0
  -25.4528   11.2890   20.2033 C   0  0  0  0  0  0  0  0  0  0  0  0
  -24.8889   12.3917   21.1098 C   0  0  0  0  0  0  0  0  0  0  0  0
  -24.6850   11.6718   22.4524 C   0  0  0  0  0  0  0  0  0  0  0  0
  -25.7415   10.6250   22.5274 N   0  0  0  0  0  0  0  0  0  0  0  0
  -26.8538   10.8803   23.4860 C   0  0  0  0  0  0  0  0  0  0  0  0
  -28.1625   10.5983   22.7318 C   0  0  0  0  0  0  0  0  0  0  0  0
  -27.7880   10.8890   21.2738 C   0  0  0  0  0  0  0  0  0  0  0  0
 21 22  1  0
 22 23  2  0
 23 24  1  0
 24 25  2  0
 25 26  1  0
 26 27  2  0
 22 27  1  0
 25 29  1  0
 29 30  3  0
 24  1  1  0
  1  2  2  0
  2  3  1  0
  3  4  2  0
  4  5  1  0
  5  6  2  0
  6  7  1  0
  7 31  1  0
 31 32  1  0
 32 33  1  0
 33 34  1  0
 34 35  1  0
 35 36  1  0
 36 37  1  0
 33 37  1  0
 37 38  1  0
 38 39  1  0
 39 40  1  0
 33 40  1  0
  7  8  2  0
  8  9  1  0
  4  9  1  0
  9 10  2  0
  1 10  1  0
 10 11  1  0
  5 12  1  0
 12 13  1  0
 13 14  1  0
 14 15  1  0
 15 16  1  0
 16 17  1  0
 17 18  1  0
 12 18  1  0
 17 19  1  0
 14 19  1  0
 21 28  1  0
 19 20  1  0
M  END
> <minimizedAffinity>
-8.65646

> <CNNscore>
0.1185037494

> <CNNaffinity>
6.1812586784

> <CNN_VS>
0.7325023413

> <CNNaffinity_variance>
0.2153653651

$$$$



 40 46  0  0  0  0  0  0  0  0999 V2000
  -22.8904    4.0128   23.5538 C   0  0  0  0  0  0  0  0  0  0  0  0
  -23.9170    3.1434   23.7262 N   0  0  0  0  0  0  0  0  0  0  0  0
  -25.2082    3.4333   23.4351 C   0  0  0  0  0  0  0  0  0  0  0  0
  -25.5821    4.7112   22.9571 C   0  0  0  0  0  0  0  0  0  0  0  0
  -26.9213    5.1571   22.7110 C   0  0  0  0  0  0  0  0  0  0  0  0
  -27.0579    6.3774   22.1184 N   0  0  0  0  0  0  0  0  0  0  0  0
  -26.0292    7.1849   21.7755 C   0  0  0  0  0  0  0  0  0  0  0  0
  -24.7690    6.8052   22.0868 N   0  0  0  0  0  0  0  0  0  0  0  0
  -24.5081    5.6101   22.6744 C   0  0  0  0  0  0  0  0  0  0  0  0
  -23.1681    5.2773   22.9872 C   0  0  0  0  0  0  0  0  0  0  0  0
  -22.2018    6.1380   22.7771 F   0  0  0  0  0  0  0  0  0  0  0  0
  -28.1118    4.4909   23.0171 N   0  0  0  0  0  0  0  0  0  0  0  0
  -29.3543    4.8327   22.3261 C   0  0  0  0  0  0  0  0  0  0  0  0
  -30.6256    4.6564   23.2178 C   0  0  0  0  0  0  0  0  0  0  0  0
  -30.6433    5.5451   24.4854 C   0  0  0  0  0  0  0  0  0  0  0  0
  -29.8728    4.7216   25.5391 C   0  0  0  0  0  0  0  0  0  0  0  0
  -29.5435    3.4076   24.7936 C   0  0  0  0  0  0  0  0  0  0  0  0
  -28.1885    3.4422   24.0256 C   0  0  0  0  0  0  0  0  0  0  0  0
  -30.6102    3.2983   23.7830 N   0  0  0  0  0  0  0  0  0  0  0  0
  -31.4905    3.1741   24.2857 H   0  0  0  0  0  0  0  0  0  0  0  0
  -19.3023    4.1755   26.8024 O   0  0  0  0  0  0  0  0  0  0  0  0
  -19.7907    3.7008   25.6333 C   0  0  0  0  0  0  0  0  0  0  0  0
  -21.0942    4.0350   25.2194 C   0  0  0  0  0  0  0  0  0  0  0  0
  -21.5970    3.5879   23.9732 C   0  0  0  0  0  0  0  0  0  0  0  0
  -20.7705    2.7582   23.1579 C   0  0  0  0  0  0  0  0  0  0  0  0
  -19.4726    2.4070   23.5967 C   0  0  0  0  0  0  0  0  0  0  0  0
  -18.9836    2.8847   24.8240 C   0  0  0  0  0  0  0  0  0  0  0  0
  -18.9830    5.0774   26.5857 H   0  0  0  0  0  0  0  0  0  0  0  0
  -21.1720    2.2936   22.0000 C   0  0  0  0  0  0  0  0  0  0  0  0
  -21.5297    1.8666   20.9442 C   0  0  0  0  0  0  0  0  0  0  0  0
  -26.2636    8.3723   21.1469 O   0  0  0  0  0  0  0  0  0  0  0  0
  -27.3896    9.0914   21.6964 C   0  0  0  0  0  0  0  0  0  0  0  0
  -26.9639   10.5546   22.0446 C   0  0  0  0  0  0  0  0  0  0  0  0
  -27.4164   10.9519   23.4802 C   0  0  0  0  0  0  0  0  0  0  0  0
  -27.7919   12.4349   23.3556 C   0  0  0  0  0  0  0  0  0  0  0  0
  -28.3621   12.5338   21.9317 C   0  0  0  0  0  0  0  0  0  0  0  0
  -27.6383   11.5149   21.1223 N   0  0  0  0  0  0  0  0  0  0  0  0
  -26.6426   12.0377   20.1443 C   0  0  0  0  0  0  0  0  0  0  0  0
  -25.3619   11.2092   20.3297 C   0  0  0  0  0  0  0  0  0  0  0  0
  -25.4404   10.7800   21.7994 C   0  0  0  0  0  0  0  0  0  0  0  0
 21 22  1  0
 22 23  2  0
 23 24  1  0
 24 25  2  0
 25 26  1  0
 26 27  2  0
 22 27  1  0
 25 29  1  0
 29 30  3  0
 24  1  1  0
  1  2  2  0
  2  3  1  0
  3  4  2  0
  4  5  1  0
  5  6  2  0
  6  7  1  0
  7 31  1  0
 31 32  1  0
 32 33  1  0
 33 34  1  0
 34 35  1  0
 35 36  1  0
 36 37  1  0
 33 37  1  0
 37 38  1  0
 38 39  1  0
 39 40  1  0
 33 40  1  0
  7  8  2  0
  8  9  1  0
  4  9  1  0
  9 10  2  0
  1 10  1  0
 10 11  1  0
  5 12  1  0
 12 13  1  0
 13 14  1  0
 14 15  1  0
 15 16  1  0
 16 17  1  0
 17 18  1  0
 12 18  1  0
 17 19  1  0
 14 19  1  0
 21 28  1  0
 19 20  1  0
M  END
> <minimizedAffinity>
-8.91156

> <CNNscore>
0.1019521728

> <CNNaffinity>
6.1967983246

> <CNN_VS>
0.6317770481

> <CNNaffinity_variance>
0.2577992380

$$$$



 40 46  0  0  0  0  0  0  0  0999 V2000
  -23.5007    4.4341   23.2010 C   0  0  0  0  0  0  0  0  0  0  0  0
  -23.4225    5.7554   22.9050 N   0  0  0  0  0  0  0  0  0  0  0  0
  -24.4825    6.5065   22.5202 C   0  0  0  0  0  0  0  0  0  0  0  0
  -25.7662    5.9339   22.3602 C   0  0  0  0  0  0  0  0  0  0  0  0
  -26.9307    6.6075   21.8670 C   0  0  0  0  0  0  0  0  0  0  0  0
  -28.1040    5.9151   21.9220 N   0  0  0  0  0  0  0  0  0  0  0  0
  -28.2295    4.6507   22.3838 C   0  0  0  0  0  0  0  0  0  0  0  0
  -27.1182    3.9821   22.7673 N   0  0  0  0  0  0  0  0  0  0  0  0
  -25.8944    4.5684   22.7604 C   0  0  0  0  0  0  0  0  0  0  0  0
  -24.7681    3.8100   23.1609 C   0  0  0  0  0  0  0  0  0  0  0  0
  -24.8940    2.5413   23.4667 F   0  0  0  0  0  0  0  0  0  0  0  0
  -27.0060    7.8935   21.3236 N   0  0  0  0  0  0  0  0  0  0  0  0
  -25.9315    8.4063   20.4746 C   0  0  0  0  0  0  0  0  0  0  0  0
  -25.7301    9.9511   20.5989 C   0  0  0  0  0  0  0  0  0  0  0  0
  -25.3485   10.4318   22.0202 C   0  0  0  0  0  0  0  0  0  0  0  0
  -26.7032   10.6190   22.7358 C   0  0  0  0  0  0  0  0  0  0  0  0
  -27.7369   10.2912   21.6336 C   0  0  0  0  0  0  0  0  0  0  0  0
  -28.1316    8.7855   21.5687 C   0  0  0  0  0  0  0  0  0  0  0  0
  -27.0288   10.6066   20.3805 N   0  0  0  0  0  0  0  0  0  0  0  0
  -26.8580   11.6135   20.3758 H   0  0  0  0  0  0  0  0  0  0  0  0
  -19.5120    4.1157   25.9291 O   0  0  0  0  0  0  0  0  0  0  0  0
  -20.2668    3.6357   24.9139 C   0  0  0  0  0  0  0  0  0  0  0  0
  -21.5111    4.2224   24.6143 C   0  0  0  0  0  0  0  0  0  0  0  0
  -22.2855    3.7632   23.5211 C   0  0  0  0  0  0  0  0  0  0  0  0
  -21.7988    2.6667   22.7483 C   0  0  0  0  0  0  0  0  0  0  0  0
  -20.5600    2.0682   23.0756 C   0  0  0  0  0  0  0  0  0  0  0  0
  -19.7950    2.5578   24.1473 C   0  0  0  0  0  0  0  0  0  0  0  0
  -19.0374    4.8810   25.5402 H   0  0  0  0  0  0  0  0  0  0  0  0
  -22.4661    2.1770   21.7321 C   0  0  0  0  0  0  0  0  0  0  0  0
  -23.0786    1.7257   20.8121 C   0  0  0  0  0  0  0  0  0  0  0  0
  -29.4549    4.0545   22.4391 O   0  0  0  0  0  0  0  0  0  0  0  0
  -29.7594    3.5056   23.7403 C   0  0  0  0  0  0  0  0  0  0  0  0
  -31.0314    4.2022   24.3237 C   0  0  0  0  0  0  0  0  0  0  0  0
  -30.7758    5.7127   24.6006 C   0  0  0  0  0  0  0  0  0  0  0  0
  -31.5801    5.9991   25.8760 C   0  0  0  0  0  0  0  0  0  0  0  0
  -31.4753    4.6812   26.6600 C   0  0  0  0  0  0  0  0  0  0  0  0
  -31.3839    3.5981   25.6422 N   0  0  0  0  0  0  0  0  0  0  0  0
  -32.5931    2.7418   25.4822 C   0  0  0  0  0  0  0  0  0  0  0  0
  -32.8674    2.6394   23.9738 C   0  0  0  0  0  0  0  0  0  0  0  0
  -32.2831    3.9479   23.4289 C   0  0  0  0  0  0  0  0  0  0  0  0
 21 22  1  0
 22 23  2  0
 23 24  1  0
 24 25  2  0
 25 26  1  0
 26 27  2  0
 22 27  1  0
 25 29  1  0
 29 30  3  0
 24  1  1  0
  1  2  2  0
  2  3  1  0
  3  4  2  0
  4  5  1  0
  5  6  2  0
  6  7  1  0
  7 31  1  0
 31 32  1  0
 32 33  1  0
 33 34  1  0
 34 35  1  0
 35 36  1  0
 36 37  1  0
 33 37  1  0
 37 38  1  0
 38 39  1  0
 39 40  1  0
 33 40  1  0
  7  8  2  0
  8  9  1  0
  4  9  1  0
  9 10  2  0
  1 10  1  0
 10 11  1  0
  5 12  1  0
 12 13  1  0
 13 14  1  0
 14 15  1  0
 15 16  1  0
 16 17  1  0
 17 18  1  0
 12 18  1  0
 17 19  1  0
 14 19  1  0
 21 28  1  0
 19 20  1  0
M  END
> <minimizedAffinity>
-8.23187

> <CNNscore>
0.0891104639

> <CNNaffinity>
6.1883144379

> <CNN_VS>
0.5514435768

> <CNNaffinity_variance>
0.2342040390

$$$$



 40 46  0  0  0  0  0  0  0  0999 V2000
  -23.2357    4.3797   23.4588 C   0  0  0  0  0  0  0  0  0  0  0  0
  -23.2540    5.6684   23.0362 N   0  0  0  0  0  0  0  0  0  0  0  0
  -24.3753    6.3156   22.6368 C   0  0  0  0  0  0  0  0  0  0  0  0
  -25.6264    5.6564   22.5966 C   0  0  0  0  0  0  0  0  0  0  0  0
  -26.8519    6.2101   22.1019 C   0  0  0  0  0  0  0  0  0  0  0  0
  -27.9757    5.4591   22.2811 N   0  0  0  0  0  0  0  0  0  0  0  0
  -28.0007    4.2403   22.8654 C   0  0  0  0  0  0  0  0  0  0  0  0
  -26.8335    3.6779   23.2533 N   0  0  0  0  0  0  0  0  0  0  0  0
  -25.6504    4.3310   23.1294 C   0  0  0  0  0  0  0  0  0  0  0  0
  -24.4618    3.6819   23.5417 C   0  0  0  0  0  0  0  0  0  0  0  0
  -24.4939    2.4437   23.9714 F   0  0  0  0  0  0  0  0  0  0  0  0
  -27.0322    7.4308   21.4445 N   0  0  0  0  0  0  0  0  0  0  0  0
  -26.0409    7.9112   20.4828 C   0  0  0  0  0  0  0  0  0  0  0  0
  -25.9203    9.4688   20.4461 C   0  0  0  0  0  0  0  0  0  0  0  0
  -25.4826   10.1060   21.7875 C   0  0  0  0  0  0  0  0  0  0  0  0
  -26.8006   10.2941   22.5682 C   0  0  0  0  0  0  0  0  0  0  0  0
  -27.8779    9.8073   21.5715 C   0  0  0  0  0  0  0  0  0  0  0  0
  -28.1898    8.2845   21.6759 C   0  0  0  0  0  0  0  0  0  0  0  0
  -27.2647   10.0331   20.2508 N   0  0  0  0  0  0  0  0  0  0  0  0
  -27.1518   11.0420   20.1392 H   0  0  0  0  0  0  0  0  0  0  0  0
  -19.3471    4.2362   26.3418 O   0  0  0  0  0  0  0  0  0  0  0  0
  -20.0038    3.7745   25.2526 C   0  0  0  0  0  0  0  0  0  0  0  0
  -21.2923    4.2509   24.9445 C   0  0  0  0  0  0  0  0  0  0  0  0
  -21.9676    3.8149   23.7785 C   0  0  0  0  0  0  0  0  0  0  0  0
  -21.3330    2.8521   22.9377 C   0  0  0  0  0  0  0  0  0  0  0  0
  -20.0496    2.3609   23.2722 C   0  0  0  0  0  0  0  0  0  0  0  0
  -19.3862    2.8280   24.4190 C   0  0  0  0  0  0  0  0  0  0  0  0
  -18.9446    5.0801   26.0451 H   0  0  0  0  0  0  0  0  0  0  0  0
  -21.9016    2.3902   21.8510 C   0  0  0  0  0  0  0  0  0  0  0  0
  -22.4226    1.9623   20.8658 C   0  0  0  0  0  0  0  0  0  0  0  0
  -29.1825    3.5818   23.0386 O   0  0  0  0  0  0  0  0  0  0  0  0
  -29.5445    3.4242   24.4282 C   0  0  0  0  0  0  0  0  0  0  0  0
  -30.6580    4.4548   24.8048 C   0  0  0  0  0  0  0  0  0  0  0  0
  -31.6807    4.6358   23.6453 C   0  0  0  0  0  0  0  0  0  0  0  0
  -32.0497    6.1244   23.7027 C   0  0  0  0  0  0  0  0  0  0  0  0
  -30.7434    6.7921   24.1610 C   0  0  0  0  0  0  0  0  0  0  0  0
  -30.0522    5.8001   25.0302 N   0  0  0  0  0  0  0  0  0  0  0  0
  -30.0453    6.0969   26.4907 C   0  0  0  0  0  0  0  0  0  0  0  0
  -30.4594    4.8027   27.2080 C   0  0  0  0  0  0  0  0  0  0  0  0
  -31.3323    4.0959   26.1644 C   0  0  0  0  0  0  0  0  0  0  0  0
 21 22  1  0
 22 23  2  0
 23 24  1  0
 24 25  2  0
 25 26  1  0
 26 27  2  0
 22 27  1  0
 25 29  1  0
 29 30  3  0
 24  1  1  0
  1  2  2  0
  2  3  1  0
  3  4  2  0
  4  5  1  0
  5  6  2  0
  6  7  1  0
  7 31  1  0
 31 32  1  0
 32 33  1  0
 33 34  1  0
 34 35  1  0
 35 36  1  0
 36 37  1  0
 33 37  1  0
 37 38  1  0
 38 39  1  0
 39 40  1  0
 33 40  1  0
  7  8  2  0
  8  9  1  0
  4  9  1  0
  9 10  2  0
  1 10  1  0
 10 11  1  0
  5 12  1  0
 12 13  1  0
 13 14  1  0
 14 15  1  0
 15 16  1  0
 16 17  1  0
 17 18  1  0
 12 18  1  0
 17 19  1  0
 14 19  1  0
 21 28  1  0
 19 20  1  0
M  END
> <minimizedAffinity>
-8.83504

> <CNNscore>
0.0864444822

> <CNNaffinity>
6.3903803825

> <CNN_VS>
0.5524131060

> <CNNaffinity_variance>
0.1243843660

$$$$



 40 46  0  0  0  0  0  0  0  0999 V2000
  -30.2257    4.6034   24.0401 C   0  0  0  0  0  0  0  0  0  0  0  0
  -30.5444    5.6985   23.3060 N   0  0  0  0  0  0  0  0  0  0  0  0
  -29.6407    6.4285   22.6086 C   0  0  0  0  0  0  0  0  0  0  0  0
  -28.2630    6.1083   22.6358 C   0  0  0  0  0  0  0  0  0  0  0  0
  -27.2129    6.8637   22.0196 C   0  0  0  0  0  0  0  0  0  0  0  0
  -25.9678    6.3086   22.0446 N   0  0  0  0  0  0  0  0  0  0  0  0
  -25.6657    5.1240   22.6218 C   0  0  0  0  0  0  0  0  0  0  0  0
  -26.6371    4.4517   23.2802 N   0  0  0  0  0  0  0  0  0  0  0  0
  -27.9161    4.9033   23.3207 C   0  0  0  0  0  0  0  0  0  0  0  0
  -28.8838    4.1600   24.0384 C   0  0  0  0  0  0  0  0  0  0  0  0
  -28.5368    3.0899   24.7117 F   0  0  0  0  0  0  0  0  0  0  0  0
  -27.3113    8.1139   21.4015 N   0  0  0  0  0  0  0  0  0  0  0  0
  -26.3643    8.5041   20.3578 C   0  0  0  0  0  0  0  0  0  0  0  0
  -26.0690   10.0385   20.3342 C   0  0  0  0  0  0  0  0  0  0  0  0
  -25.4388   10.5865   21.6379 C   0  0  0  0  0  0  0  0  0  0  0  0
  -26.6487   10.9018   22.5429 C   0  0  0  0  0  0  0  0  0  0  0  0
  -27.8623   10.5667   21.6452 C   0  0  0  0  0  0  0  0  0  0  0  0
  -28.3365    9.0867   21.7549 C   0  0  0  0  0  0  0  0  0  0  0  0
  -27.3516   10.7564   20.2761 N   0  0  0  0  0  0  0  0  0  0  0  0
  -27.1341   11.7486   20.1701 H   0  0  0  0  0  0  0  0  0  0  0  0
  -32.6870    0.6019   25.2164 O   0  0  0  0  0  0  0  0  0  0  0  0
  -32.5108    1.9373   25.3439 C   0  0  0  0  0  0  0  0  0  0  0  0
  -31.4389    2.5782   24.6938 C   0  0  0  0  0  0  0  0  0  0  0  0
  -31.2752    3.9825   24.7765 C   0  0  0  0  0  0  0  0  0  0  0  0
  -32.1969    4.7354   25.5639 C   0  0  0  0  0  0  0  0  0  0  0  0
  -33.2539    4.0769   26.2342 C   0  0  0  0  0  0  0  0  0  0  0  0
  -33.4139    2.6862   26.1158 C   0  0  0  0  0  0  0  0  0  0  0  0
  -33.1644    0.4984   24.3657 H   0  0  0  0  0  0  0  0  0  0  0  0
  -32.1009    6.0353   25.7002 C   0  0  0  0  0  0  0  0  0  0  0  0
  -32.0047    7.2185   25.8265 C   0  0  0  0  0  0  0  0  0  0  0  0
  -24.3963    4.6292   22.5589 O   0  0  0  0  0  0  0  0  0  0  0  0
  -23.4264    5.4728   23.2181 C   0  0  0  0  0  0  0  0  0  0  0  0
  -22.1982    4.6160   23.6666 C   0  0  0  0  0  0  0  0  0  0  0  0
  -20.8563    5.2767   23.2352 C   0  0  0  0  0  0  0  0  0  0  0  0
  -19.9536    4.0880   22.8777 C   0  0  0  0  0  0  0  0  0  0  0  0
  -20.9386    3.0631   22.2930 C   0  0  0  0  0  0  0  0  0  0  0  0
  -22.2334    3.2838   22.9946 N   0  0  0  0  0  0  0  0  0  0  0  0
  -22.6300    2.2442   23.9861 C   0  0  0  0  0  0  0  0  0  0  0  0
  -23.0662    2.9880   25.2579 C   0  0  0  0  0  0  0  0  0  0  0  0
  -22.2563    4.2880   25.1901 C   0  0  0  0  0  0  0  0  0  0  0  0
 21 22  1  0
 22 23  2  0
 23 24  1  0
 24 25  2  0
 25 26  1  0
 26 27  2  0
 22 27  1  0
 25 29  1  0
 29 30  3  0
 24  1  1  0
  1  2  2  0
  2  3  1  0
  3  4  2  0
  4  5  1  0
  5  6  2  0
  6  7  1  0
  7 31  1  0
 31 32  1  0
 32 33  1  0
 33 34  1  0
 34 35  1  0
 35 36  1  0
 36 37  1  0
 33 37  1  0
 37 38  1  0
 38 39  1  0
 39 40  1  0
 33 40  1  0
  7  8  2  0
  8  9  1  0
  4  9  1  0
  9 10  2  0
  1 10  1  0
 10 11  1  0
  5 12  1  0
 12 13  1  0
 13 14  1  0
 14 15  1  0
 15 16  1  0
 16 17  1  0
 17 18  1  0
 12 18  1  0
 17 19  1  0
 14 19  1  0
 21 28  1  0
 19 20  1  0
M  END
> <minimizedAffinity>
-8.16476

> <CNNscore>
0.0842547119

> <CNNaffinity>
5.8271403313

> <CNN_VS>
0.4909640253

> <CNNaffinity_variance>
0.3624063432

$$$$
