


 41 47  0  0  0  0  0  0  0  0999 V2000
  -20.3133    3.9267   23.9366 C   0  0  0  0  0  0  0  0  0  0  0  0
  -21.0563    2.7972   24.0445 N   0  0  0  0  0  0  0  0  0  0  0  0
  -22.3824    2.7213   23.7868 C   0  0  0  0  0  0  0  0  0  0  0  0
  -23.1001    3.8540   23.3350 C   0  0  0  0  0  0  0  0  0  0  0  0
  -22.3597    5.0756   23.2816 C   0  0  0  0  0  0  0  0  0  0  0  0
  -20.9710    5.1140   23.5469 C   0  0  0  0  0  0  0  0  0  0  0  0
  -20.3130    6.2420   23.4580 F   0  0  0  0  0  0  0  0  0  0  0  0
  -23.0002    6.2357   22.9962 N   0  0  0  0  0  0  0  0  0  0  0  0
  -24.3237    6.2777   22.7354 C   0  0  0  0  0  0  0  0  0  0  0  0
  -25.0145    5.1154   22.6962 N   0  0  0  0  0  0  0  0  0  0  0  0
  -24.4863    3.8849   22.9666 C   0  0  0  0  0  0  0  0  0  0  0  0
  -25.3629    2.7954   22.8495 N   0  0  0  0  0  0  0  0  0  0  0  0
  -26.7608    3.0045   22.4732 C   0  0  0  0  0  0  0  0  0  0  0  0
  -27.3710    1.8097   21.6732 C   0  0  0  0  0  0  0  0  0  0  0  0
  -26.6436    1.4903   20.3428 C   0  0  0  0  0  0  0  0  0  0  0  0
  -25.5261    0.5049   20.7439 C   0  0  0  0  0  0  0  0  0  0  0  0
  -25.7145    0.3526   22.2682 C   0  0  0  0  0  0  0  0  0  0  0  0
  -24.9577    1.4194   23.1171 C   0  0  0  0  0  0  0  0  0  0  0  0
  -27.1583    0.5819   22.4590 N   0  0  0  0  0  0  0  0  0  0  0  0
  -27.6528   -0.1734   21.9725 H   0  0  0  0  0  0  0  0  0  0  0  0
  -16.8272    3.5143   27.2859 O   0  0  0  0  0  0  0  0  0  0  0  0
  -17.1808    3.6323   25.9841 C   0  0  0  0  0  0  0  0  0  0  0  0
  -18.5390    3.6649   25.6163 C   0  0  0  0  0  0  0  0  0  0  0  0
  -18.9256    3.8321   24.2637 C   0  0  0  0  0  0  0  0  0  0  0  0
  -17.9022    3.9375   23.2735 C   0  0  0  0  0  0  0  0  0  0  0  0
  -16.5399    3.8752   23.6507 C   0  0  0  0  0  0  0  0  0  0  0  0
  -16.1821    3.7340   25.0019 C   0  0  0  0  0  0  0  0  0  0  0  0
  -16.8610    4.4300   27.6355 H   0  0  0  0  0  0  0  0  0  0  0  0
  -18.1805    4.0821   22.0009 C   0  0  0  0  0  0  0  0  0  0  0  0
  -18.3978    4.2112   20.8333 C   0  0  0  0  0  0  0  0  0  0  0  0
  -24.9420    7.4649   22.4827 O   0  0  0  0  0  0  0  0  0  0  0  0
  -26.1183    7.3454   21.6515 C   0  0  0  0  0  0  0  0  0  0  0  0
  -26.5752    8.7655   21.1750 C   0  0  0  0  0  0  0  0  0  0  0  0
  -28.0753    8.7635   20.7484 C   0  0  0  0  0  0  0  0  0  0  0  0
  -28.8327    9.0790   22.0418 C   0  0  0  0  0  0  0  0  0  0  0  0
  -27.8911   10.0569   22.7597 C   0  0  0  0  0  0  0  0  0  0  0  0
  -26.5088    9.7289   22.3127 N   0  0  0  0  0  0  0  0  0  0  0  0
  -25.6479   10.8840   21.9344 C   0  0  0  0  0  0  0  0  0  0  0  0
  -25.5034   10.8393   20.4038 C   0  0  0  0  0  0  0  0  0  0  0  0
  -25.6292    9.3412   20.0789 C   0  0  0  0  0  0  0  0  0  0  0  0
  -26.4981   11.5728   19.7934 F   0  0  0  0  0  0  0  0  0  0  0  0
 21 22  1  0
 22 23  2  0
 23 24  1  0
 24 25  2  0
 25 26  1  0
 26 27  2  0
 22 27  1  0
 25 29  1  0
 29 30  3  0
 24  1  1  0
  1  2  2  0
  2  3  1  0
  3  4  2  0
  4  5  1  0
  5  6  2  0
  1  6  1  0
  6  7  1  0
  5  8  1  0
  8  9  2  0
  9 10  1  0
 10 11  2  0
  4 11  1  0
 11 12  1  0
 12 13  1  0
 13 14  1  0
 14 15  1  0
 15 16  1  0
 16 17  1  0
 17 18  1  0
 12 18  1  0
 17 19  1  0
 14 19  1  0
  9 31  1  0
 31 32  1  0
 33 32  1  0
 33 34  1  0
 34 35  1  0
 35 36  1  0
 36 37  1  0
 33 37  1  0
 37 38  1  0
 38 39  1  0
 39 40  1  0
 33 40  1  0
 39 41  1  0
 21 28  1  0
 19 20  1  0
M  END
> <minimizedAffinity>
-11.81335

> <CNNscore>
0.7935310006

> <CNNaffinity>
8.1927652359

> <CNN_VS>
6.5012130737

> <CNNaffinity_variance>
0.0136058852

$$$$



 41 47  0  0  0  0  0  0  0  0999 V2000
  -20.3643    3.9919   24.0137 C   0  0  0  0  0  0  0  0  0  0  0  0
  -21.1150    2.8679   24.1266 N   0  0  0  0  0  0  0  0  0  0  0  0
  -22.4328    2.7901   23.8297 C   0  0  0  0  0  0  0  0  0  0  0  0
  -23.1314    3.9135   23.3275 C   0  0  0  0  0  0  0  0  0  0  0  0
  -22.3846    5.1309   23.2666 C   0  0  0  0  0  0  0  0  0  0  0  0
  -21.0047    5.1712   23.5740 C   0  0  0  0  0  0  0  0  0  0  0  0
  -20.3395    6.2944   23.4775 F   0  0  0  0  0  0  0  0  0  0  0  0
  -23.0111    6.2856   22.9325 N   0  0  0  0  0  0  0  0  0  0  0  0
  -24.3257    6.3254   22.6296 C   0  0  0  0  0  0  0  0  0  0  0  0
  -25.0198    5.1649   22.5980 N   0  0  0  0  0  0  0  0  0  0  0  0
  -24.5053    3.9398   22.9154 C   0  0  0  0  0  0  0  0  0  0  0  0
  -25.3824    2.8507   22.7984 N   0  0  0  0  0  0  0  0  0  0  0  0
  -26.7335    3.0390   22.2704 C   0  0  0  0  0  0  0  0  0  0  0  0
  -27.2801    1.7885   21.5107 C   0  0  0  0  0  0  0  0  0  0  0  0
  -26.4307    1.3588   20.2880 C   0  0  0  0  0  0  0  0  0  0  0  0
  -25.3727    0.4006   20.8739 C   0  0  0  0  0  0  0  0  0  0  0  0
  -25.7118    0.3718   22.3793 C   0  0  0  0  0  0  0  0  0  0  0  0
  -25.0260    1.4976   23.2123 C   0  0  0  0  0  0  0  0  0  0  0  0
  -27.1638    0.6258   22.4078 N   0  0  0  0  0  0  0  0  0  0  0  0
  -27.6194   -0.1624   21.9358 H   0  0  0  0  0  0  0  0  0  0  0  0
  -16.9916    3.5275   27.4705 O   0  0  0  0  0  0  0  0  0  0  0  0
  -17.3014    3.6740   26.1604 C   0  0  0  0  0  0  0  0  0  0  0  0
  -18.6464    3.7043   25.7469 C   0  0  0  0  0  0  0  0  0  0  0  0
  -18.9879    3.9008   24.3861 C   0  0  0  0  0  0  0  0  0  0  0  0
  -17.9321    4.0385   23.4346 C   0  0  0  0  0  0  0  0  0  0  0  0
  -16.5830    3.9783   23.8570 C   0  0  0  0  0  0  0  0  0  0  0  0
  -16.2705    3.8075   25.2160 C   0  0  0  0  0  0  0  0  0  0  0  0
  -17.0457    4.4343   27.8404 H   0  0  0  0  0  0  0  0  0  0  0  0
  -18.1679    4.2114   22.1569 C   0  0  0  0  0  0  0  0  0  0  0  0
  -18.3781    4.4057   20.9971 C   0  0  0  0  0  0  0  0  0  0  0  0
  -24.9309    7.5080   22.3281 O   0  0  0  0  0  0  0  0  0  0  0  0
  -25.7949    7.4436   21.1714 C   0  0  0  0  0  0  0  0  0  0  0  0
  -27.2383    7.9082   21.5632 C   0  0  0  0  0  0  0  0  0  0  0  0
  -27.1971    9.1642   22.4866 C   0  0  0  0  0  0  0  0  0  0  0  0
  -27.2045   10.3458   21.5120 C   0  0  0  0  0  0  0  0  0  0  0  0
  -28.1026    9.8434   20.3722 C   0  0  0  0  0  0  0  0  0  0  0  0
  -27.9744    8.3598   20.3462 N   0  0  0  0  0  0  0  0  0  0  0  0
  -29.2444    7.5915   20.2216 C   0  0  0  0  0  0  0  0  0  0  0  0
  -29.4979    6.9399   21.5915 C   0  0  0  0  0  0  0  0  0  0  0  0
  -28.0817    6.7405   22.1573 C   0  0  0  0  0  0  0  0  0  0  0  0
  -30.2513    7.7657   22.3980 F   0  0  0  0  0  0  0  0  0  0  0  0
 21 22  1  0
 22 23  2  0
 23 24  1  0
 24 25  2  0
 25 26  1  0
 26 27  2  0
 22 27  1  0
 25 29  1  0
 29 30  3  0
 24  1  1  0
  1  2  2  0
  2  3  1  0
  3  4  2  0
  4  5  1  0
  5  6  2  0
  1  6  1  0
  6  7  1  0
  5  8  1  0
  8  9  2  0
  9 10  1  0
 10 11  2  0
  4 11  1  0
 11 12  1  0
 12 13  1  0
 13 14  1  0
 14 15  1  0
 15 16  1  0
 16 17  1  0
 17 18  1  0
 12 18  1  0
 17 19  1  0
 14 19  1  0
  9 31  1  0
 31 32  1  0
 33 32  1  0
 33 34  1  0
 34 35  1  0
 35 36  1  0
 36 37  1  0
 33 37  1  0
 37 38  1  0
 38 39  1  0
 39 40  1  0
 33 40  1  0
 39 41  1  0
 21 28  1  0
 19 20  1  0
M  END
> <minimizedAffinity>
-10.81514

> <CNNscore>
0.5385345221

> <CNNaffinity>
7.7250409126

> <CNN_VS>
4.1602010727

> <CNNaffinity_variance>
0.0793588236

$$$$



 41 47  0  0  0  0  0  0  0  0999 V2000
  -19.8319    4.0685   23.4186 C   0  0  0  0  0  0  0  0  0  0  0  0
  -20.4980    2.8973   23.5742 N   0  0  0  0  0  0  0  0  0  0  0  0
  -21.8391    2.7549   23.4659 C   0  0  0  0  0  0  0  0  0  0  0  0
  -22.6618    3.8573   23.1338 C   0  0  0  0  0  0  0  0  0  0  0  0
  -21.9969    5.1188   23.0354 C   0  0  0  0  0  0  0  0  0  0  0  0
  -20.5908    5.2272   23.1431 C   0  0  0  0  0  0  0  0  0  0  0  0
  -20.0068    6.3916   23.0159 F   0  0  0  0  0  0  0  0  0  0  0  0
  -22.7253    6.2486   22.8608 N   0  0  0  0  0  0  0  0  0  0  0  0
  -24.0704    6.2240   22.7527 C   0  0  0  0  0  0  0  0  0  0  0  0
  -24.6997    5.0268   22.7553 N   0  0  0  0  0  0  0  0  0  0  0  0
  -24.0807    3.8209   22.9255 C   0  0  0  0  0  0  0  0  0  0  0  0
  -24.9072    2.6880   22.8742 N   0  0  0  0  0  0  0  0  0  0  0  0
  -26.3618    2.8266   22.9402 C   0  0  0  0  0  0  0  0  0  0  0  0
  -27.1251    1.7154   22.1513 C   0  0  0  0  0  0  0  0  0  0  0  0
  -26.7979    1.6635   20.6376 C   0  0  0  0  0  0  0  0  0  0  0  0
  -25.5717    0.7318   20.5420 C   0  0  0  0  0  0  0  0  0  0  0  0
  -25.3075    0.3378   22.0108 C   0  0  0  0  0  0  0  0  0  0  0  0
  -24.3844    1.3286   22.7839 C   0  0  0  0  0  0  0  0  0  0  0  0
  -26.6439    0.4076   22.6294 N   0  0  0  0  0  0  0  0  0  0  0  0
  -27.2250   -0.3073   22.1790 H   0  0  0  0  0  0  0  0  0  0  0  0
  -15.3997    3.8400   21.4580 O   0  0  0  0  0  0  0  0  0  0  0  0
  -16.1804    3.9156   22.5619 C   0  0  0  0  0  0  0  0  0  0  0  0
  -17.5795    4.0068   22.4385 C   0  0  0  0  0  0  0  0  0  0  0  0
  -18.4129    4.0424   23.5836 C   0  0  0  0  0  0  0  0  0  0  0  0
  -17.7977    4.0135   24.8718 C   0  0  0  0  0  0  0  0  0  0  0  0
  -16.3886    3.9503   24.9847 C   0  0  0  0  0  0  0  0  0  0  0  0
  -15.5852    3.8908   23.8337 C   0  0  0  0  0  0  0  0  0  0  0  0
  -15.4028    2.8891   21.2175 H   0  0  0  0  0  0  0  0  0  0  0  0
  -18.5006    4.0550   25.9773 C   0  0  0  0  0  0  0  0  0  0  0  0
  -19.1172    4.0687   27.0004 C   0  0  0  0  0  0  0  0  0  0  0  0
  -24.7744    7.3813   22.6089 O   0  0  0  0  0  0  0  0  0  0  0  0
  -26.0148    7.2240   21.8840 C   0  0  0  0  0  0  0  0  0  0  0  0
  -26.4585    8.6034   21.2900 C   0  0  0  0  0  0  0  0  0  0  0  0
  -27.9462    8.5663   20.8238 C   0  0  0  0  0  0  0  0  0  0  0  0
  -28.7390    8.9762   22.0687 C   0  0  0  0  0  0  0  0  0  0  0  0
  -27.8176   10.0070   22.7368 C   0  0  0  0  0  0  0  0  0  0  0  0
  -26.4235    9.6494   22.3537 N   0  0  0  0  0  0  0  0  0  0  0  0
  -25.5526   10.7748   21.9138 C   0  0  0  0  0  0  0  0  0  0  0  0
  -25.3659   10.6159   20.3953 C   0  0  0  0  0  0  0  0  0  0  0  0
  -25.4827    9.0975   20.1803 C   0  0  0  0  0  0  0  0  0  0  0  0
  -26.3435   11.2996   19.7047 F   0  0  0  0  0  0  0  0  0  0  0  0
 21 22  1  0
 22 23  2  0
 23 24  1  0
 24 25  2  0
 25 26  1  0
 26 27  2  0
 22 27  1  0
 25 29  1  0
 29 30  3  0
 24  1  1  0
  1  2  2  0
  2  3  1  0
  3  4  2  0
  4  5  1  0
  5  6  2  0
  1  6  1  0
  6  7  1  0
  5  8  1  0
  8  9  2  0
  9 10  1  0
 10 11  2  0
  4 11  1  0
 11 12  1  0
 12 13  1  0
 13 14  1  0
 14 15  1  0
 15 16  1  0
 16 17  1  0
 17 18  1  0
 12 18  1  0
 17 19  1  0
 14 19  1  0
  9 31  1  0
 31 32  1  0
 33 32  1  0
 33 34  1  0
 34 35  1  0
 35 36  1  0
 36 37  1  0
 33 37  1  0
 37 38  1  0
 38 39  1  0
 39 40  1  0
 33 40  1  0
 39 41  1  0
 21 28  1  0
 19 20  1  0
M  END
> <minimizedAffinity>
-10.52614

> <CNNscore>
0.2521355748

> <CNNaffinity>
7.3779530525

> <CNN_VS>
1.8602443933

> <CNNaffinity_variance>
0.0756133795

$$$$



 41 47  0  0  0  0  0  0  0  0999 V2000
  -23.3784    4.4751   23.4210 C   0  0  0  0  0  0  0  0  0  0  0  0
  -23.3274    5.6682   22.7781 N   0  0  0  0  0  0  0  0  0  0  0  0
  -24.4076    6.3411   22.3186 C   0  0  0  0  0  0  0  0  0  0  0  0
  -25.7152    5.8394   22.5201 C   0  0  0  0  0  0  0  0  0  0  0  0
  -25.7965    4.5492   23.1299 C   0  0  0  0  0  0  0  0  0  0  0  0
  -24.6456    3.8806   23.6085 C   0  0  0  0  0  0  0  0  0  0  0  0
  -24.7548    2.7142   24.1923 F   0  0  0  0  0  0  0  0  0  0  0  0
  -26.9984    3.9310   23.2330 N   0  0  0  0  0  0  0  0  0  0  0  0
  -28.1389    4.5052   22.7960 C   0  0  0  0  0  0  0  0  0  0  0  0
  -28.0837    5.7620   22.2993 N   0  0  0  0  0  0  0  0  0  0  0  0
  -26.9374    6.4883   22.1414 C   0  0  0  0  0  0  0  0  0  0  0  0
  -27.0919    7.7854   21.6288 N   0  0  0  0  0  0  0  0  0  0  0  0
  -28.1867    8.6397   22.0884 C   0  0  0  0  0  0  0  0  0  0  0  0
  -27.8344   10.1613   22.0668 C   0  0  0  0  0  0  0  0  0  0  0  0
  -26.6248   10.5522   22.9529 C   0  0  0  0  0  0  0  0  0  0  0  0
  -25.4002   10.3705   22.0320 C   0  0  0  0  0  0  0  0  0  0  0  0
  -26.0211    9.8892   20.7034 C   0  0  0  0  0  0  0  0  0  0  0  0
  -26.2120    8.3445   20.6078 C   0  0  0  0  0  0  0  0  0  0  0  0
  -27.3634   10.4988   20.7124 N   0  0  0  0  0  0  0  0  0  0  0  0
  -27.2354   11.5159   20.6856 H   0  0  0  0  0  0  0  0  0  0  0  0
  -19.6618    4.3069   26.5354 O   0  0  0  0  0  0  0  0  0  0  0  0
  -20.2621    3.8397   25.4150 C   0  0  0  0  0  0  0  0  0  0  0  0
  -21.5159    4.3413   25.0182 C   0  0  0  0  0  0  0  0  0  0  0  0
  -22.1369    3.8950   23.8257 C   0  0  0  0  0  0  0  0  0  0  0  0
  -21.4736    2.8988   23.0470 C   0  0  0  0  0  0  0  0  0  0  0  0
  -20.2266    2.3806   23.4698 C   0  0  0  0  0  0  0  0  0  0  0  0
  -19.6196    2.8579   24.6434 C   0  0  0  0  0  0  0  0  0  0  0  0
  -19.2018    5.1238   26.2472 H   0  0  0  0  0  0  0  0  0  0  0  0
  -21.9898    2.4273   21.9383 C   0  0  0  0  0  0  0  0  0  0  0  0
  -22.4408    1.9663   20.9327 C   0  0  0  0  0  0  0  0  0  0  0  0
  -29.3260    3.8431   22.8868 O   0  0  0  0  0  0  0  0  0  0  0  0
  -29.6426    3.3924   24.2230 C   0  0  0  0  0  0  0  0  0  0  0  0
  -30.9430    4.1048   24.7270 C   0  0  0  0  0  0  0  0  0  0  0  0
  -31.3128    5.3166   23.8176 C   0  0  0  0  0  0  0  0  0  0  0  0
  -32.2037    4.7098   22.7293 C   0  0  0  0  0  0  0  0  0  0  0  0
  -32.9788    3.6230   23.4885 C   0  0  0  0  0  0  0  0  0  0  0  0
  -32.1071    3.1784   24.6113 N   0  0  0  0  0  0  0  0  0  0  0  0
  -32.7650    3.0407   25.9405 C   0  0  0  0  0  0  0  0  0  0  0  0
  -32.2532    4.2055   26.8048 C   0  0  0  0  0  0  0  0  0  0  0  0
  -30.8505    4.4797   26.2365 C   0  0  0  0  0  0  0  0  0  0  0  0
  -33.0717    5.3076   26.6808 F   0  0  0  0  0  0  0  0  0  0  0  0
 21 22  1  0
 22 23  2  0
 23 24  1  0
 24 25  2  0
 25 26  1  0
 26 27  2  0
 22 27  1  0
 25 29  1  0
 29 30  3  0
 24  1  1  0
  1  2  2  0
  2  3  1  0
  3  4  2  0
  4  5  1  0
  5  6  2  0
  1  6  1  0
  6  7  1  0
  5  8  1  0
  8  9  2  0
  9 10  1  0
 10 11  2  0
  4 11  1  0
 11 12  1  0
 12 13  1  0
 13 14  1  0
 14 15  1  0
 15 16  1  0
 16 17  1  0
 17 18  1  0
 12 18  1  0
 17 19  1  0
 14 19  1  0
  9 31  1  0
 31 32  1  0
 33 32  1  0
 33 34  1  0
 34 35  1  0
 35 36  1  0
 36 37  1  0
 33 37  1  0
 37 38  1  0
 38 39  1  0
 39 40  1  0
 33 40  1  0
 39 41  1  0
 21 28  1  0
 19 20  1  0
M  END
> <minimizedAffinity>
-7.78971

> <CNNscore>
0.1123553440

> <CNNaffinity>
6.3229904175

> <CNN_VS>
0.7104217410

> <CNNaffinity_variance>
0.0915946141

$$$$



 41 47  0  0  0  0  0  0  0  0999 V2000
  -27.2684    8.2992   22.0320 C   0  0  0  0  0  0  0  0  0  0  0  0
  -27.9292    7.1388   21.7950 N   0  0  0  0  0  0  0  0  0  0  0  0
  -27.3713    5.9080   21.8638 C   0  0  0  0  0  0  0  0  0  0  0  0
  -26.0165    5.7450   22.2382 C   0  0  0  0  0  0  0  0  0  0  0  0
  -25.2753    6.9531   22.4232 C   0  0  0  0  0  0  0  0  0  0  0  0
  -25.8957    8.2223   22.3546 C   0  0  0  0  0  0  0  0  0  0  0  0
  -25.1977    9.3102   22.5610 F   0  0  0  0  0  0  0  0  0  0  0  0
  -23.9393    6.8927   22.6442 N   0  0  0  0  0  0  0  0  0  0  0  0
  -23.2782    5.7185   22.7192 C   0  0  0  0  0  0  0  0  0  0  0  0
  -23.9857    4.5689   22.6343 N   0  0  0  0  0  0  0  0  0  0  0  0
  -25.3315    4.4963   22.4108 C   0  0  0  0  0  0  0  0  0  0  0  0
  -25.8853    3.2074   22.3789 N   0  0  0  0  0  0  0  0  0  0  0  0
  -26.5996    2.7355   21.1928 C   0  0  0  0  0  0  0  0  0  0  0  0
  -26.4831    1.1933   20.9738 C   0  0  0  0  0  0  0  0  0  0  0  0
  -25.0324    0.6784   20.7965 C   0  0  0  0  0  0  0  0  0  0  0  0
  -24.5468    0.3976   22.2338 C   0  0  0  0  0  0  0  0  0  0  0  0
  -25.7636    0.7804   23.1028 C   0  0  0  0  0  0  0  0  0  0  0  0
  -25.8138    2.2855   23.5077 C   0  0  0  0  0  0  0  0  0  0  0  0
  -26.9122    0.5251   22.2145 N   0  0  0  0  0  0  0  0  0  0  0  0
  -26.9288   -0.4819   22.0211 H   0  0  0  0  0  0  0  0  0  0  0  0
  -31.2345   10.9078   23.0348 O   0  0  0  0  0  0  0  0  0  0  0  0
  -30.0340   10.8081   22.4161 C   0  0  0  0  0  0  0  0  0  0  0  0
  -29.2464    9.6524   22.5743 C   0  0  0  0  0  0  0  0  0  0  0  0
  -28.0087    9.5140   21.8991 C   0  0  0  0  0  0  0  0  0  0  0  0
  -27.5618   10.5903   21.0740 C   0  0  0  0  0  0  0  0  0  0  0  0
  -28.3480   11.7595   20.9442 C   0  0  0  0  0  0  0  0  0  0  0  0
  -29.5838   11.8621   21.6045 C   0  0  0  0  0  0  0  0  0  0  0  0
  -31.8599   10.4454   22.4373 H   0  0  0  0  0  0  0  0  0  0  0  0
  -26.4230   10.5417   20.4269 C   0  0  0  0  0  0  0  0  0  0  0  0
  -25.3976   10.4676   19.8184 C   0  0  0  0  0  0  0  0  0  0  0  0
  -21.9298    5.6945   22.9116 O   0  0  0  0  0  0  0  0  0  0  0  0
  -21.5120    4.8579   24.0135 C   0  0  0  0  0  0  0  0  0  0  0  0
  -20.2751    3.9981   23.5851 C   0  0  0  0  0  0  0  0  0  0  0  0
  -20.5089    2.4846   23.8798 C   0  0  0  0  0  0  0  0  0  0  0  0
  -21.1752    1.9539   22.6068 C   0  0  0  0  0  0  0  0  0  0  0  0
  -20.4938    2.7696   21.4985 C   0  0  0  0  0  0  0  0  0  0  0  0
  -20.0946    4.0698   22.1055 N   0  0  0  0  0  0  0  0  0  0  0  0
  -18.7172    4.5451   21.7967 C   0  0  0  0  0  0  0  0  0  0  0  0
  -17.8982    4.3819   23.0883 C   0  0  0  0  0  0  0  0  0  0  0  0
  -18.9504    4.5424   24.1985 C   0  0  0  0  0  0  0  0  0  0  0  0
  -17.2982    3.1419   23.1377 F   0  0  0  0  0  0  0  0  0  0  0  0
 21 22  1  0
 22 23  2  0
 23 24  1  0
 24 25  2  0
 25 26  1  0
 26 27  2  0
 22 27  1  0
 25 29  1  0
 29 30  3  0
 24  1  1  0
  1  2  2  0
  2  3  1  0
  3  4  2  0
  4  5  1  0
  5  6  2  0
  1  6  1  0
  6  7  1  0
  5  8  1  0
  8  9  2  0
  9 10  1  0
 10 11  2  0
  4 11  1  0
 11 12  1  0
 12 13  1  0
 13 14  1  0
 14 15  1  0
 15 16  1  0
 16 17  1  0
 17 18  1  0
 12 18  1  0
 17 19  1  0
 14 19  1  0
  9 31  1  0
 31 32  1  0
 33 32  1  0
 33 34  1  0
 34 35  1  0
 35 36  1  0
 36 37  1  0
 33 37  1  0
 37 38  1  0
 38 39  1  0
 39 40  1  0
 33 40  1  0
 39 41  1  0
 21 28  1  0
 19 20  1  0
M  END
> <minimizedAffinity>
-6.99232

> <CNNscore>
0.0782247484

> <CNNaffinity>
6.4552311897

> <CNN_VS>
0.5049588084

> <CNNaffinity_variance>
0.5052409768

$$$$



 41 47  0  0  0  0  0  0  0  0999 V2000
  -27.2604    8.3399   21.8815 C   0  0  0  0  0  0  0  0  0  0  0  0
  -27.9215    7.1773   21.6563 N   0  0  0  0  0  0  0  0  0  0  0  0
  -27.3754    5.9456   21.7796 C   0  0  0  0  0  0  0  0  0  0  0  0
  -26.0351    5.7849   22.2040 C   0  0  0  0  0  0  0  0  0  0  0  0
  -25.2915    6.9931   22.3784 C   0  0  0  0  0  0  0  0  0  0  0  0
  -25.8998    8.2638   22.2521 C   0  0  0  0  0  0  0  0  0  0  0  0
  -25.2011    9.3527   22.4500 F   0  0  0  0  0  0  0  0  0  0  0  0
  -23.9641    6.9307   22.6458 N   0  0  0  0  0  0  0  0  0  0  0  0
  -23.3146    5.7549   22.7772 C   0  0  0  0  0  0  0  0  0  0  0  0
  -24.0274    4.6079   22.7021 N   0  0  0  0  0  0  0  0  0  0  0  0
  -25.3655    4.5375   22.4358 C   0  0  0  0  0  0  0  0  0  0  0  0
  -25.9274    3.2517   22.4229 N   0  0  0  0  0  0  0  0  0  0  0  0
  -26.6886    2.7858   21.2639 C   0  0  0  0  0  0  0  0  0  0  0  0
  -26.5892    1.2434   21.0384 C   0  0  0  0  0  0  0  0  0  0  0  0
  -25.1491    0.7206   20.8059 C   0  0  0  0  0  0  0  0  0  0  0  0
  -24.6114    0.4347   22.2236 C   0  0  0  0  0  0  0  0  0  0  0  0
  -25.7925    0.8229   23.1383 C   0  0  0  0  0  0  0  0  0  0  0  0
  -25.8188    2.3275   23.5469 C   0  0  0  0  0  0  0  0  0  0  0  0
  -26.9751    0.5755   22.2935 N   0  0  0  0  0  0  0  0  0  0  0  0
  -27.0047   -0.4310   22.0994 H   0  0  0  0  0  0  0  0  0  0  0  0
  -27.5525   12.7684   19.9208 O   0  0  0  0  0  0  0  0  0  0  0  0
  -28.1022   11.7985   20.6896 C   0  0  0  0  0  0  0  0  0  0  0  0
  -27.4469   10.5636   20.8526 C   0  0  0  0  0  0  0  0  0  0  0  0
  -27.9868    9.5551   21.6884 C   0  0  0  0  0  0  0  0  0  0  0  0
  -29.2310    9.8090   22.3413 C   0  0  0  0  0  0  0  0  0  0  0  0
  -29.8955   11.0432   22.1482 C   0  0  0  0  0  0  0  0  0  0  0  0
  -29.3270   12.0370   21.3340 C   0  0  0  0  0  0  0  0  0  0  0  0
  -26.9193   13.2254   20.5143 H   0  0  0  0  0  0  0  0  0  0  0  0
  -29.7994    8.9214   23.1205 C   0  0  0  0  0  0  0  0  0  0  0  0
  -30.2919    8.1199   23.8568 C   0  0  0  0  0  0  0  0  0  0  0  0
  -21.9736    5.7279   23.0154 O   0  0  0  0  0  0  0  0  0  0  0  0
  -21.4369    4.3965   23.1824 C   0  0  0  0  0  0  0  0  0  0  0  0
  -19.8828    4.4252   22.9911 C   0  0  0  0  0  0  0  0  0  0  0  0
  -19.1827    5.1826   24.1608 C   0  0  0  0  0  0  0  0  0  0  0  0
  -18.9195    4.0949   25.2067 C   0  0  0  0  0  0  0  0  0  0  0  0
  -18.6061    2.8621   24.3465 C   0  0  0  0  0  0  0  0  0  0  0  0
  -19.3367    3.0381   23.0607 N   0  0  0  0  0  0  0  0  0  0  0  0
  -18.5657    2.7462   21.8202 C   0  0  0  0  0  0  0  0  0  0  0  0
  -18.2874    4.1017   21.1487 C   0  0  0  0  0  0  0  0  0  0  0  0
  -19.4818    4.9664   21.5861 C   0  0  0  0  0  0  0  0  0  0  0  0
  -17.0933    4.6326   21.5872 F   0  0  0  0  0  0  0  0  0  0  0  0
 21 22  1  0
 22 23  2  0
 23 24  1  0
 24 25  2  0
 25 26  1  0
 26 27  2  0
 22 27  1  0
 25 29  1  0
 29 30  3  0
 24  1  1  0
  1  2  2  0
  2  3  1  0
  3  4  2  0
  4  5  1  0
  5  6  2  0
  1  6  1  0
  6  7  1  0
  5  8  1  0
  8  9  2  0
  9 10  1  0
 10 11  2  0
  4 11  1  0
 11 12  1  0
 12 13  1  0
 13 14  1  0
 14 15  1  0
 15 16  1  0
 16 17  1  0
 17 18  1  0
 12 18  1  0
 17 19  1  0
 14 19  1  0
  9 31  1  0
 31 32  1  0
 33 32  1  0
 33 34  1  0
 34 35  1  0
 35 36  1  0
 36 37  1  0
 33 37  1  0
 37 38  1  0
 38 39  1  0
 39 40  1  0
 33 40  1  0
 39 41  1  0
 21 28  1  0
 19 20  1  0
M  END
> <minimizedAffinity>
-7.55301

> <CNNscore>
0.0616196655

> <CNNaffinity>
6.1998381615

> <CNN_VS>
0.3820319474

> <CNNaffinity_variance>
0.5239846706

$$$$



 41 47  0  0  0  0  0  0  0  0999 V2000
  -25.0670    5.0002   22.8555 C   0  0  0  0  0  0  0  0  0  0  0  0
  -24.1799    6.0112   22.6811 N   0  0  0  0  0  0  0  0  0  0  0  0
  -24.4894    7.2272   22.1750 C   0  0  0  0  0  0  0  0  0  0  0  0
  -25.8200    7.5464   21.8147 C   0  0  0  0  0  0  0  0  0  0  0  0
  -26.7633    6.4776   21.9189 C   0  0  0  0  0  0  0  0  0  0  0  0
  -26.4056    5.2224   22.4641 C   0  0  0  0  0  0  0  0  0  0  0  0
  -27.2994    4.2730   22.5772 F   0  0  0  0  0  0  0  0  0  0  0  0
  -28.0277    6.6525   21.4626 N   0  0  0  0  0  0  0  0  0  0  0  0
  -28.4407    7.8204   20.9272 C   0  0  0  0  0  0  0  0  0  0  0  0
  -27.5811    8.8646   20.9062 N   0  0  0  0  0  0  0  0  0  0  0  0
  -26.2841    8.8154   21.3324 C   0  0  0  0  0  0  0  0  0  0  0  0
  -25.5593   10.0141   21.2498 N   0  0  0  0  0  0  0  0  0  0  0  0
  -25.3305   10.6556   19.9553 C   0  0  0  0  0  0  0  0  0  0  0  0
  -25.2308   12.2118   20.0456 C   0  0  0  0  0  0  0  0  0  0  0  0
  -26.4949   12.9036   20.6154 C   0  0  0  0  0  0  0  0  0  0  0  0
  -26.2716   12.9130   22.1420 C   0  0  0  0  0  0  0  0  0  0  0  0
  -24.9009   12.2229   22.3066 C   0  0  0  0  0  0  0  0  0  0  0  0
  -24.9747   10.6691   22.4154 C   0  0  0  0  0  0  0  0  0  0  0  0
  -24.2033   12.5433   21.0479 N   0  0  0  0  0  0  0  0  0  0  0  0
  -24.0770   13.5606   21.0209 H   0  0  0  0  0  0  0  0  0  0  0  0
  -22.4580    2.6573   26.2087 O   0  0  0  0  0  0  0  0  0  0  0  0
  -23.2290    2.6145   25.0964 C   0  0  0  0  0  0  0  0  0  0  0  0
  -23.7933    3.7945   24.5765 C   0  0  0  0  0  0  0  0  0  0  0  0
  -24.5658    3.7732   23.3892 C   0  0  0  0  0  0  0  0  0  0  0  0
  -24.7851    2.5180   22.7448 C   0  0  0  0  0  0  0  0  0  0  0  0
  -24.2369    1.3336   23.2914 C   0  0  0  0  0  0  0  0  0  0  0  0
  -23.4533    1.3847   24.4564 C   0  0  0  0  0  0  0  0  0  0  0  0
  -21.5646    2.8956   25.8815 H   0  0  0  0  0  0  0  0  0  0  0  0
  -25.4982    2.4156   21.6498 C   0  0  0  0  0  0  0  0  0  0  0  0
  -26.1576    2.2876   20.6619 C   0  0  0  0  0  0  0  0  0  0  0  0
  -29.7096    7.9526   20.4497 O   0  0  0  0  0  0  0  0  0  0  0  0
  -30.3154    6.7035   20.0477 C   0  0  0  0  0  0  0  0  0  0  0  0
  -31.6541    6.4888   20.8315 C   0  0  0  0  0  0  0  0  0  0  0  0
  -32.4059    7.8381   21.0472 C   0  0  0  0  0  0  0  0  0  0  0  0
  -33.2891    7.9776   19.8036 C   0  0  0  0  0  0  0  0  0  0  0  0
  -33.6913    6.5259   19.5053 C   0  0  0  0  0  0  0  0  0  0  0  0
  -32.5921    5.6614   20.0177 N   0  0  0  0  0  0  0  0  0  0  0  0
  -33.0069    4.4655   20.8028 C   0  0  0  0  0  0  0  0  0  0  0  0
  -32.6435    4.7568   22.2686 C   0  0  0  0  0  0  0  0  0  0  0  0
  -31.4307    5.6958   22.1539 C   0  0  0  0  0  0  0  0  0  0  0  0
  -33.6921    5.3655   22.9244 F   0  0  0  0  0  0  0  0  0  0  0  0
 21 22  1  0
 22 23  2  0
 23 24  1  0
 24 25  2  0
 25 26  1  0
 26 27  2  0
 22 27  1  0
 25 29  1  0
 29 30  3  0
 24  1  1  0
  1  2  2  0
  2  3  1  0
  3  4  2  0
  4  5  1  0
  5  6  2  0
  1  6  1  0
  6  7  1  0
  5  8  1  0
  8  9  2  0
  9 10  1  0
 10 11  2  0
  4 11  1  0
 11 12  1  0
 12 13  1  0
 13 14  1  0
 14 15  1  0
 15 16  1  0
 16 17  1  0
 17 18  1  0
 12 18  1  0
 17 19  1  0
 14 19  1  0
  9 31  1  0
 31 32  1  0
 33 32  1  0
 33 34  1  0
 34 35  1  0
 35 36  1  0
 36 37  1  0
 33 37  1  0
 37 38  1  0
 38 39  1  0
 39 40  1  0
 33 40  1  0
 39 41  1  0
 21 28  1  0
 19 20  1  0
M  END
> <minimizedAffinity>
-6.75128

> <CNNscore>
0.0612024628

> <CNNaffinity>
4.8059935570

> <CNN_VS>
0.2941386402

> <CNNaffinity_variance>
1.6465349197

$$$$



 41 47  0  0  0  0  0  0  0  0999 V2000
  -19.7497    4.0118   23.4452 C   0  0  0  0  0  0  0  0  0  0  0  0
  -20.3793    2.8135   23.5291 N   0  0  0  0  0  0  0  0  0  0  0  0
  -21.7138    2.6348   23.3959 C   0  0  0  0  0  0  0  0  0  0  0  0
  -22.5678    3.7270   23.1129 C   0  0  0  0  0  0  0  0  0  0  0  0
  -21.9430    5.0124   23.0910 C   0  0  0  0  0  0  0  0  0  0  0  0
  -20.5424    5.1591   23.2226 C   0  0  0  0  0  0  0  0  0  0  0  0
  -19.9949    6.3466   23.1657 F   0  0  0  0  0  0  0  0  0  0  0  0
  -22.7054    6.1264   22.9680 N   0  0  0  0  0  0  0  0  0  0  0  0
  -24.0477    6.0651   22.8413 C   0  0  0  0  0  0  0  0  0  0  0  0
  -24.6381    4.8502   22.7715 N   0  0  0  0  0  0  0  0  0  0  0  0
  -23.9825    3.6570   22.8847 C   0  0  0  0  0  0  0  0  0  0  0  0
  -24.7713    2.5030   22.7618 N   0  0  0  0  0  0  0  0  0  0  0  0
  -26.1822    2.5237   23.1473 C   0  0  0  0  0  0  0  0  0  0  0  0
  -27.0659    1.5441   22.3111 C   0  0  0  0  0  0  0  0  0  0  0  0
  -27.0650    1.8218   20.7866 C   0  0  0  0  0  0  0  0  0  0  0  0
  -25.8630    1.0164   20.2508 C   0  0  0  0  0  0  0  0  0  0  0  0
  -25.2839    0.3534   21.5186 C   0  0  0  0  0  0  0  0  0  0  0  0
  -24.2442    1.2297   22.2821 C   0  0  0  0  0  0  0  0  0  0  0  0
  -26.4606    0.2036   22.3941 N   0  0  0  0  0  0  0  0  0  0  0  0
  -27.1049   -0.4445   21.9289 H   0  0  0  0  0  0  0  0  0  0  0  0
  -15.2904    3.8561   21.5397 O   0  0  0  0  0  0  0  0  0  0  0  0
  -16.0856    3.9311   22.6332 C   0  0  0  0  0  0  0  0  0  0  0  0
  -17.4849    3.9874   22.4922 C   0  0  0  0  0  0  0  0  0  0  0  0
  -18.3325    4.0217   23.6269 C   0  0  0  0  0  0  0  0  0  0  0  0
  -17.7321    4.0279   24.9224 C   0  0  0  0  0  0  0  0  0  0  0  0
  -16.3234    3.9996   25.0525 C   0  0  0  0  0  0  0  0  0  0  0  0
  -15.5052    3.9406   23.9119 C   0  0  0  0  0  0  0  0  0  0  0  0
  -15.2685    2.9018   21.3146 H   0  0  0  0  0  0  0  0  0  0  0  0
  -18.4488    4.0705   26.0190 C   0  0  0  0  0  0  0  0  0  0  0  0
  -19.0706    4.1125   27.0382 C   0  0  0  0  0  0  0  0  0  0  0  0
  -24.7871    7.2056   22.7508 O   0  0  0  0  0  0  0  0  0  0  0  0
  -25.4359    7.3809   21.4714 C   0  0  0  0  0  0  0  0  0  0  0  0
  -26.9837    7.2072   21.6353 C   0  0  0  0  0  0  0  0  0  0  0  0
  -27.6417    8.5032   22.2004 C   0  0  0  0  0  0  0  0  0  0  0  0
  -27.9809    9.3252   20.9532 C   0  0  0  0  0  0  0  0  0  0  0  0
  -28.3668    8.2485   19.9286 C   0  0  0  0  0  0  0  0  0  0  0  0
  -27.6178    7.0154   20.2982 N   0  0  0  0  0  0  0  0  0  0  0  0
  -28.3976    5.7464   20.2968 C   0  0  0  0  0  0  0  0  0  0  0  0
  -28.5841    5.3459   21.7701 C   0  0  0  0  0  0  0  0  0  0  0  0
  -27.3399    5.9327   22.4578 C   0  0  0  0  0  0  0  0  0  0  0  0
  -29.7448    5.8837   22.2836 F   0  0  0  0  0  0  0  0  0  0  0  0
 21 22  1  0
 22 23  2  0
 23 24  1  0
 24 25  2  0
 25 26  1  0
 26 27  2  0
 22 27  1  0
 25 29  1  0
 29 30  3  0
 24  1  1  0
  1  2  2  0
  2  3  1  0
  3  4  2  0
  4  5  1  0
  5  6  2  0
  1  6  1  0
  6  7  1  0
  5  8  1  0
  8  9  2  0
  9 10  1  0
 10 11  2  0
  4 11  1  0
 11 12  1  0
 12 13  1  0
 13 14  1  0
 14 15  1  0
 15 16  1  0
 16 17  1  0
 17 18  1  0
 12 18  1  0
 17 19  1  0
 14 19  1  0
  9 31  1  0
 31 32  1  0
 33 32  1  0
 33 34  1  0
 34 35  1  0
 35 36  1  0
 36 37  1  0
 33 37  1  0
 37 38  1  0
 38 39  1  0
 39 40  1  0
 33 40  1  0
 39 41  1  0
 21 28  1  0
 19 20  1  0
M  END
> <minimizedAffinity>
-9.70505

> <CNNscore>
0.0602971390

> <CNNaffinity>
6.4887466431

> <CNN_VS>
0.3912528455

> <CNNaffinity_variance>
0.7109370828

$$$$



 41 47  0  0  0  0  0  0  0  0999 V2000
  -25.8847    5.2941   22.6309 C   0  0  0  0  0  0  0  0  0  0  0  0
  -27.2364    5.2713   22.5214 N   0  0  0  0  0  0  0  0  0  0  0  0
  -27.9914    6.3108   22.0971 C   0  0  0  0  0  0  0  0  0  0  0  0
  -27.3908    7.5255   21.6895 C   0  0  0  0  0  0  0  0  0  0  0  0
  -25.9741    7.6047   21.8625 C   0  0  0  0  0  0  0  0  0  0  0  0
  -25.2163    6.4926   22.2979 C   0  0  0  0  0  0  0  0  0  0  0  0
  -23.9160    6.5853   22.4155 F   0  0  0  0  0  0  0  0  0  0  0  0
  -25.3351    8.7776   21.6316 N   0  0  0  0  0  0  0  0  0  0  0  0
  -25.9919    9.8816   21.2176 C   0  0  0  0  0  0  0  0  0  0  0  0
  -27.3178    9.7916   20.9658 N   0  0  0  0  0  0  0  0  0  0  0  0
  -28.0741    8.6707   21.1605 C   0  0  0  0  0  0  0  0  0  0  0  0
  -29.4309    8.7720   20.8173 N   0  0  0  0  0  0  0  0  0  0  0  0
  -29.9736    7.9998   19.6998 C   0  0  0  0  0  0  0  0  0  0  0  0
  -31.4736    7.6078   19.8900 C   0  0  0  0  0  0  0  0  0  0  0  0
  -31.7569    6.7449   21.1456 C   0  0  0  0  0  0  0  0  0  0  0  0
  -31.9993    7.7727   22.2705 C   0  0  0  0  0  0  0  0  0  0  0  0
  -31.8298    9.1304   21.5561 C   0  0  0  0  0  0  0  0  0  0  0  0
  -30.3614    9.6536   21.5145 C   0  0  0  0  0  0  0  0  0  0  0  0
  -32.2327    8.8393   20.1682 N   0  0  0  0  0  0  0  0  0  0  0  0
  -33.2249    8.5806   20.1877 H   0  0  0  0  0  0  0  0  0  0  0  0
  -21.8149    2.8050   23.5149 O   0  0  0  0  0  0  0  0  0  0  0  0
  -23.1673    2.8692   23.5400 C   0  0  0  0  0  0  0  0  0  0  0  0
  -23.8312    4.0418   23.1335 C   0  0  0  0  0  0  0  0  0  0  0  0
  -25.2461    4.1100   23.1122 C   0  0  0  0  0  0  0  0  0  0  0  0
  -25.9870    2.9677   23.5423 C   0  0  0  0  0  0  0  0  0  0  0  0
  -25.3094    1.8036   23.9758 C   0  0  0  0  0  0  0  0  0  0  0  0
  -23.9055    1.7523   23.9639 C   0  0  0  0  0  0  0  0  0  0  0  0
  -21.5958    2.5635   22.5899 H   0  0  0  0  0  0  0  0  0  0  0  0
  -27.2976    2.9581   23.5621 C   0  0  0  0  0  0  0  0  0  0  0  0
  -28.4920    2.9788   23.5571 C   0  0  0  0  0  0  0  0  0  0  0  0
  -25.3236   11.0528   21.0246 O   0  0  0  0  0  0  0  0  0  0  0  0
  -25.1561   11.4072   19.6335 C   0  0  0  0  0  0  0  0  0  0  0  0
  -25.4233   12.9384   19.4423 C   0  0  0  0  0  0  0  0  0  0  0  0
  -24.6275   13.7857   20.4819 C   0  0  0  0  0  0  0  0  0  0  0  0
  -23.2829   14.0510   19.7980 C   0  0  0  0  0  0  0  0  0  0  0  0
  -23.6743   14.2007   18.3207 C   0  0  0  0  0  0  0  0  0  0  0  0
  -24.9024   13.3833   18.1165 N   0  0  0  0  0  0  0  0  0  0  0  0
  -26.0006   14.0271   17.3431 C   0  0  0  0  0  0  0  0  0  0  0  0
  -27.1153   14.3505   18.3524 C   0  0  0  0  0  0  0  0  0  0  0  0
  -26.9471   13.2634   19.4274 C   0  0  0  0  0  0  0  0  0  0  0  0
  -26.9499   15.6125   18.8815 F   0  0  0  0  0  0  0  0  0  0  0  0
 21 22  1  0
 22 23  2  0
 23 24  1  0
 24 25  2  0
 25 26  1  0
 26 27  2  0
 22 27  1  0
 25 29  1  0
 29 30  3  0
 24  1  1  0
  1  2  2  0
  2  3  1  0
  3  4  2  0
  4  5  1  0
  5  6  2  0
  1  6  1  0
  6  7  1  0
  5  8  1  0
  8  9  2  0
  9 10  1  0
 10 11  2  0
  4 11  1  0
 11 12  1  0
 12 13  1  0
 13 14  1  0
 14 15  1  0
 15 16  1  0
 16 17  1  0
 17 18  1  0
 12 18  1  0
 17 19  1  0
 14 19  1  0
  9 31  1  0
 31 32  1  0
 33 32  1  0
 33 34  1  0
 34 35  1  0
 35 36  1  0
 36 37  1  0
 33 37  1  0
 37 38  1  0
 38 39  1  0
 39 40  1  0
 33 40  1  0
 39 41  1  0
 21 28  1  0
 19 20  1  0
M  END
> <minimizedAffinity>
-7.59608

> <CNNscore>
0.0594399720

> <CNNaffinity>
5.2826690674

> <CNN_VS>
0.3140017092

> <CNNaffinity_variance>
0.8660842776

$$$$
