


 44 50  0  0  0  0  0  0  0  0999 V2000
  -20.4700    3.9219   23.7593 C   0  0  0  0  0  0  0  0  0  0  0  0
  -21.3114    2.8090   23.6618 N   0  0  0  0  0  0  0  0  0  0  0  0
  -22.6744    2.7160   23.3365 C   0  0  0  0  0  0  0  0  0  0  0  0
  -23.3919    3.9202   23.1068 C   0  0  0  0  0  0  0  0  0  0  0  0
  -24.7975    4.0012   22.8299 C   0  0  0  0  0  0  0  0  0  0  0  0
  -25.3213    5.2417   22.6028 N   0  0  0  0  0  0  0  0  0  0  0  0
  -24.6017    6.3876   22.6173 C   0  0  0  0  0  0  0  0  0  0  0  0
  -23.2817    6.3220   22.8901 N   0  0  0  0  0  0  0  0  0  0  0  0
  -22.6532    5.1493   23.1357 C   0  0  0  0  0  0  0  0  0  0  0  0
  -21.2229    5.1480   23.4297 C   0  0  0  0  0  0  0  0  0  0  0  0
  -20.6631    6.3820   23.3796 F   0  0  0  0  0  0  0  0  0  0  0  0
  -25.6996    2.9385   22.7640 N   0  0  0  0  0  0  0  0  0  0  0  0
  -26.9066    2.9847   21.9512 C   0  0  0  0  0  0  0  0  0  0  0  0
  -27.2172    1.6318   21.2426 C   0  0  0  0  0  0  0  0  0  0  0  0
  -26.0903    1.1419   20.3063 C   0  0  0  0  0  0  0  0  0  0  0  0
  -25.1439    0.3628   21.2466 C   0  0  0  0  0  0  0  0  0  0  0  0
  -25.8413    0.4377   22.6287 C   0  0  0  0  0  0  0  0  0  0  0  0
  -25.4446    1.6882   23.4775 C   0  0  0  0  0  0  0  0  0  0  0  0
  -27.2652    0.5829   22.2772 N   0  0  0  0  0  0  0  0  0  0  0  0
  -27.5532   -0.2828   21.8144 H   0  0  0  0  0  0  0  0  0  0  0  0
  -17.0978    3.6839   25.6739 C   0  0  0  0  0  0  0  0  0  0  0  0
  -18.4863    3.6779   25.4446 C   0  0  0  0  0  0  0  0  0  0  0  0
  -19.0479    3.8503   24.1173 C   0  0  0  0  0  0  0  0  0  0  0  0
  -18.1218    3.9712   23.0429 C   0  0  0  0  0  0  0  0  0  0  0  0
  -16.7314    3.9741   23.2847 C   0  0  0  0  0  0  0  0  0  0  0  0
  -16.2256    3.8403   24.5854 C   0  0  0  0  0  0  0  0  0  0  0  0
  -17.5302    3.9622   27.9690 C   0  0  0  0  0  0  0  0  0  0  0  0
  -16.5919    3.6015   26.9434 O   0  0  0  0  0  0  0  0  0  0  0  0
  -18.5446    4.1134   21.7393 O   0  0  0  0  0  0  0  0  0  0  0  0
  -17.5686    3.7886   20.7230 C   0  0  0  0  0  0  0  0  0  0  0  0
  -17.1647    2.4767   20.7781 F   0  0  0  0  0  0  0  0  0  0  0  0
  -17.9985    4.0722   19.4487 F   0  0  0  0  0  0  0  0  0  0  0  0
  -16.4573    4.5582   20.9534 F   0  0  0  0  0  0  0  0  0  0  0  0
  -25.1801    7.5997   22.3724 O   0  0  0  0  0  0  0  0  0  0  0  0
  -26.3347    7.4885   21.5133 C   0  0  0  0  0  0  0  0  0  0  0  0
  -26.8384    8.8928   21.0574 C   0  0  0  0  0  0  0  0  0  0  0  0
  -28.2780    8.8321   20.4579 C   0  0  0  0  0  0  0  0  0  0  0  0
  -29.2035    9.0947   21.6530 C   0  0  0  0  0  0  0  0  0  0  0  0
  -28.3919   10.1070   22.4732 C   0  0  0  0  0  0  0  0  0  0  0  0
  -26.9647    9.7350   22.2821 N   0  0  0  0  0  0  0  0  0  0  0  0
  -26.0017   10.8578   22.1717 C   0  0  0  0  0  0  0  0  0  0  0  0
  -25.7846   11.0632   20.6619 C   0  0  0  0  0  0  0  0  0  0  0  0
  -26.7884   11.8329   20.1128 F   0  0  0  0  0  0  0  0  0  0  0  0
  -25.8193    9.6212   20.1266 C   0  0  0  0  0  0  0  0  0  0  0  0
 27 28  1  0
 28 21  1  0
 21 22  2  0
 22 23  1  0
 23 24  2  0
 24 29  1  0
 29 30  1  0
 30 31  1  0
 30 32  1  0
 30 33  1  0
 24 25  1  0
 25 26  2  0
 21 26  1  0
 23  1  1  0
  1  2  2  0
  2  3  1  0
  3  4  2  0
  4  5  1  0
  5  6  2  0
  6  7  1  0
  7 34  1  0
 34 35  1  0
 36 35  1  0
 36 37  1  0
 37 38  1  0
 38 39  1  0
 39 40  1  0
 36 40  1  0
 40 41  1  0
 41 42  1  0
 42 43  1  0
 42 44  1  0
 36 44  1  0
  7  8  2  0
  8  9  1  0
  4  9  1  0
  9 10  2  0
  1 10  1  0
 10 11  1  0
  5 12  1  0
 12 13  1  0
 13 14  1  0
 14 15  1  0
 15 16  1  0
 16 17  1  0
 17 18  1  0
 12 18  1  0
 17 19  1  0
 14 19  1  0
 19 20  1  0
M  END
> <minimizedAffinity>
-10.51451

> <CNNscore>
0.6808727980

> <CNNaffinity>
8.1336565018

> <CNN_VS>
5.5379853249

> <CNNaffinity_variance>
0.0101254368

$$$$



 44 50  0  0  0  0  0  0  0  0999 V2000
  -19.7425    3.9632   22.8933 C   0  0  0  0  0  0  0  0  0  0  0  0
  -20.5217    2.8019   22.9055 N   0  0  0  0  0  0  0  0  0  0  0  0
  -21.9146    2.6320   22.8491 C   0  0  0  0  0  0  0  0  0  0  0  0
  -22.7308    3.7943   22.8266 C   0  0  0  0  0  0  0  0  0  0  0  0
  -24.1657    3.7932   22.8350 C   0  0  0  0  0  0  0  0  0  0  0  0
  -24.7939    5.0044   22.7788 N   0  0  0  0  0  0  0  0  0  0  0  0
  -24.1523    6.1938   22.7109 C   0  0  0  0  0  0  0  0  0  0  0  0
  -22.8028    6.2048   22.7161 N   0  0  0  0  0  0  0  0  0  0  0  0
  -22.0723    5.0673   22.7733 C   0  0  0  0  0  0  0  0  0  0  0  0
  -20.6143    5.1489   22.7810 C   0  0  0  0  0  0  0  0  0  0  0  0
  -20.1468    6.4181   22.6856 F   0  0  0  0  0  0  0  0  0  0  0  0
  -25.0009    2.6767   22.8926 N   0  0  0  0  0  0  0  0  0  0  0  0
  -26.4320    2.7808   23.1393 C   0  0  0  0  0  0  0  0  0  0  0  0
  -27.2725    1.7850   22.2844 C   0  0  0  0  0  0  0  0  0  0  0  0
  -27.0882    1.9575   20.7603 C   0  0  0  0  0  0  0  0  0  0  0  0
  -25.8490    1.0924   20.4397 C   0  0  0  0  0  0  0  0  0  0  0  0
  -25.4650    0.4650   21.8039 C   0  0  0  0  0  0  0  0  0  0  0  0
  -24.4796    1.3323   22.6513 C   0  0  0  0  0  0  0  0  0  0  0  0
  -26.7480    0.4291   22.5283 N   0  0  0  0  0  0  0  0  0  0  0  0
  -27.3591   -0.2234   22.0309 H   0  0  0  0  0  0  0  0  0  0  0  0
  -15.9559    3.5338   22.1371 C   0  0  0  0  0  0  0  0  0  0  0  0
  -17.3484    3.5346   21.9340 C   0  0  0  0  0  0  0  0  0  0  0  0
  -18.2759    3.9716   22.9616 C   0  0  0  0  0  0  0  0  0  0  0  0
  -17.7053    4.4548   24.1730 C   0  0  0  0  0  0  0  0  0  0  0  0
  -16.3071    4.4509   24.3648 C   0  0  0  0  0  0  0  0  0  0  0  0
  -15.4432    3.9883   23.3622 C   0  0  0  0  0  0  0  0  0  0  0  0
  -13.7277    3.0132   21.5933 C   0  0  0  0  0  0  0  0  0  0  0  0
  -15.1043    3.0412   21.1852 O   0  0  0  0  0  0  0  0  0  0  0  0
  -18.4912    4.9182   25.2055 O   0  0  0  0  0  0  0  0  0  0  0  0
  -18.9887    3.9121   26.1171 C   0  0  0  0  0  0  0  0  0  0  0  0
  -18.5816    4.1244   27.4119 F   0  0  0  0  0  0  0  0  0  0  0  0
  -20.3573    3.7876   26.0921 F   0  0  0  0  0  0  0  0  0  0  0  0
  -18.4677    2.7048   25.7279 F   0  0  0  0  0  0  0  0  0  0  0  0
  -24.8358    7.3738   22.6466 O   0  0  0  0  0  0  0  0  0  0  0  0
  -26.1012    7.2336   21.9665 C   0  0  0  0  0  0  0  0  0  0  0  0
  -26.5442    8.5788   21.3123 C   0  0  0  0  0  0  0  0  0  0  0  0
  -28.0469    8.5582   20.8916 C   0  0  0  0  0  0  0  0  0  0  0  0
  -28.7946    9.1192   22.1081 C   0  0  0  0  0  0  0  0  0  0  0  0
  -27.8104   10.1737   22.6333 C   0  0  0  0  0  0  0  0  0  0  0  0
  -26.4516    9.6324   22.3642 N   0  0  0  0  0  0  0  0  0  0  0  0
  -25.4236   10.6155   21.9438 C   0  0  0  0  0  0  0  0  0  0  0  0
  -25.3783   10.5283   20.4079 C   0  0  0  0  0  0  0  0  0  0  0  0
  -26.3779   11.2858   19.8346 F   0  0  0  0  0  0  0  0  0  0  0  0
  -25.5929    9.0253   20.1586 C   0  0  0  0  0  0  0  0  0  0  0  0
 27 28  1  0
 28 21  1  0
 21 22  2  0
 22 23  1  0
 23 24  2  0
 24 29  1  0
 29 30  1  0
 30 31  1  0
 30 32  1  0
 30 33  1  0
 24 25  1  0
 25 26  2  0
 21 26  1  0
 23  1  1  0
  1  2  2  0
  2  3  1  0
  3  4  2  0
  4  5  1  0
  5  6  2  0
  6  7  1  0
  7 34  1  0
 34 35  1  0
 36 35  1  0
 36 37  1  0
 37 38  1  0
 38 39  1  0
 39 40  1  0
 36 40  1  0
 40 41  1  0
 41 42  1  0
 42 43  1  0
 42 44  1  0
 36 44  1  0
  7  8  2  0
  8  9  1  0
  4  9  1  0
  9 10  2  0
  1 10  1  0
 10 11  1  0
  5 12  1  0
 12 13  1  0
 13 14  1  0
 14 15  1  0
 15 16  1  0
 16 17  1  0
 17 18  1  0
 12 18  1  0
 17 19  1  0
 14 19  1  0
 19 20  1  0
M  END
> <minimizedAffinity>
-10.49632

> <CNNscore>
0.4491794705

> <CNNaffinity>
7.7147440910

> <CNN_VS>
3.4653046131

> <CNNaffinity_variance>
0.1629408896

$$$$



 44 50  0  0  0  0  0  0  0  0999 V2000
  -20.4991    4.0235   23.7311 C   0  0  0  0  0  0  0  0  0  0  0  0
  -21.3245    2.8988   23.6319 N   0  0  0  0  0  0  0  0  0  0  0  0
  -22.6817    2.7851   23.2894 C   0  0  0  0  0  0  0  0  0  0  0  0
  -23.4118    3.9778   23.0402 C   0  0  0  0  0  0  0  0  0  0  0  0
  -24.8146    4.0379   22.7441 C   0  0  0  0  0  0  0  0  0  0  0  0
  -25.3515    5.2695   22.4996 N   0  0  0  0  0  0  0  0  0  0  0  0
  -24.6473    6.4248   22.5140 C   0  0  0  0  0  0  0  0  0  0  0  0
  -23.3302    6.3790   22.8047 N   0  0  0  0  0  0  0  0  0  0  0  0
  -22.6898    5.2167   23.0685 C   0  0  0  0  0  0  0  0  0  0  0  0
  -21.2635    5.2368   23.3814 C   0  0  0  0  0  0  0  0  0  0  0  0
  -20.7193    6.4776   23.3282 F   0  0  0  0  0  0  0  0  0  0  0  0
  -25.7017    2.9629   22.6752 N   0  0  0  0  0  0  0  0  0  0  0  0
  -26.8372    2.9413   21.7644 C   0  0  0  0  0  0  0  0  0  0  0  0
  -27.0798    1.5410   21.1247 C   0  0  0  0  0  0  0  0  0  0  0  0
  -25.8761    1.0033   20.3194 C   0  0  0  0  0  0  0  0  0  0  0  0
  -25.0065    0.2990   21.3845 C   0  0  0  0  0  0  0  0  0  0  0  0
  -25.8167    0.4572   22.6962 C   0  0  0  0  0  0  0  0  0  0  0  0
  -25.4994    1.7655   23.4893 C   0  0  0  0  0  0  0  0  0  0  0  0
  -27.2073    0.5624   22.2196 N   0  0  0  0  0  0  0  0  0  0  0  0
  -27.4507   -0.3353   21.7935 H   0  0  0  0  0  0  0  0  0  0  0  0
  -17.1505    3.7213   25.6778 C   0  0  0  0  0  0  0  0  0  0  0  0
  -18.5335    3.6815   25.4207 C   0  0  0  0  0  0  0  0  0  0  0  0
  -19.0811    3.9736   24.1085 C   0  0  0  0  0  0  0  0  0  0  0  0
  -18.1444    4.2501   23.0728 C   0  0  0  0  0  0  0  0  0  0  0  0
  -16.7595    4.2856   23.3421 C   0  0  0  0  0  0  0  0  0  0  0  0
  -16.2689    4.0323   24.6308 C   0  0  0  0  0  0  0  0  0  0  0  0
  -17.5186    4.0170   27.9819 C   0  0  0  0  0  0  0  0  0  0  0  0
  -16.6616    3.5225   26.9410 O   0  0  0  0  0  0  0  0  0  0  0  0
  -18.5523    4.5155   21.7839 O   0  0  0  0  0  0  0  0  0  0  0  0
  -18.5661    3.3842   20.8834 C   0  0  0  0  0  0  0  0  0  0  0  0
  -17.6016    2.4546   21.1879 F   0  0  0  0  0  0  0  0  0  0  0  0
  -19.7880    2.7580   20.8190 F   0  0  0  0  0  0  0  0  0  0  0  0
  -18.2866    3.8516   19.6249 F   0  0  0  0  0  0  0  0  0  0  0  0
  -25.2381    7.6272   22.2512 O   0  0  0  0  0  0  0  0  0  0  0  0
  -26.1714    7.5468   21.1530 C   0  0  0  0  0  0  0  0  0  0  0  0
  -27.5961    8.0123   21.5857 C   0  0  0  0  0  0  0  0  0  0  0  0
  -27.5463    9.2740   22.5028 C   0  0  0  0  0  0  0  0  0  0  0  0
  -27.6571   10.4584   21.5338 C   0  0  0  0  0  0  0  0  0  0  0  0
  -28.6100    9.9103   20.4624 C   0  0  0  0  0  0  0  0  0  0  0  0
  -28.3076    8.4583   20.3528 N   0  0  0  0  0  0  0  0  0  0  0  0
  -29.4680    7.5594   20.1387 C   0  0  0  0  0  0  0  0  0  0  0  0
  -29.8297    7.0193   21.5337 C   0  0  0  0  0  0  0  0  0  0  0  0
  -30.6155    7.9149   22.2281 F   0  0  0  0  0  0  0  0  0  0  0  0
  -28.4476    6.8519   22.1888 C   0  0  0  0  0  0  0  0  0  0  0  0
 27 28  1  0
 28 21  1  0
 21 22  2  0
 22 23  1  0
 23 24  2  0
 24 29  1  0
 29 30  1  0
 30 31  1  0
 30 32  1  0
 30 33  1  0
 24 25  1  0
 25 26  2  0
 21 26  1  0
 23  1  1  0
  1  2  2  0
  2  3  1  0
  3  4  2  0
  4  5  1  0
  5  6  2  0
  6  7  1  0
  7 34  1  0
 34 35  1  0
 36 35  1  0
 36 37  1  0
 37 38  1  0
 38 39  1  0
 39 40  1  0
 36 40  1  0
 40 41  1  0
 41 42  1  0
 42 43  1  0
 42 44  1  0
 36 44  1  0
  7  8  2  0
  8  9  1  0
  4  9  1  0
  9 10  2  0
  1 10  1  0
 10 11  1  0
  5 12  1  0
 12 13  1  0
 13 14  1  0
 14 15  1  0
 15 16  1  0
 16 17  1  0
 17 18  1  0
 12 18  1  0
 17 19  1  0
 14 19  1  0
 19 20  1  0
M  END
> <minimizedAffinity>
-9.80416

> <CNNscore>
0.4014690518

> <CNNaffinity>
7.7908692360

> <CNN_VS>
3.1277928352

> <CNNaffinity_variance>
0.1249218211

$$$$



 44 50  0  0  0  0  0  0  0  0999 V2000
  -21.7032    4.2433   23.8735 C   0  0  0  0  0  0  0  0  0  0  0  0
  -22.7474    3.3255   24.0266 N   0  0  0  0  0  0  0  0  0  0  0  0
  -24.1047    3.4147   23.6778 C   0  0  0  0  0  0  0  0  0  0  0  0
  -24.5741    4.6333   23.1189 C   0  0  0  0  0  0  0  0  0  0  0  0
  -25.9388    4.9079   22.7708 C   0  0  0  0  0  0  0  0  0  0  0  0
  -26.2110    6.1244   22.2133 N   0  0  0  0  0  0  0  0  0  0  0  0
  -25.2806    7.0755   21.9665 C   0  0  0  0  0  0  0  0  0  0  0  0
  -23.9968    6.8308   22.3031 N   0  0  0  0  0  0  0  0  0  0  0  0
  -23.6085    5.6631   22.8656 C   0  0  0  0  0  0  0  0  0  0  0  0
  -22.2038    5.4637   23.2110 C   0  0  0  0  0  0  0  0  0  0  0  0
  -21.4133    6.5121   22.8725 F   0  0  0  0  0  0  0  0  0  0  0  0
  -27.0323    4.0574   22.9390 N   0  0  0  0  0  0  0  0  0  0  0  0
  -27.2764    3.3306   24.1766 C   0  0  0  0  0  0  0  0  0  0  0  0
  -28.7853    3.2721   24.5625 C   0  0  0  0  0  0  0  0  0  0  0  0
  -29.4391    4.6597   24.7461 C   0  0  0  0  0  0  0  0  0  0  0  0
  -29.8816    5.0493   23.3181 C   0  0  0  0  0  0  0  0  0  0  0  0
  -29.4825    3.8263   22.4537 C   0  0  0  0  0  0  0  0  0  0  0  0
  -28.0297    3.8944   21.8826 C   0  0  0  0  0  0  0  0  0  0  0  0
  -29.5213    2.7103   23.4155 N   0  0  0  0  0  0  0  0  0  0  0  0
  -30.4946    2.5969   23.7094 H   0  0  0  0  0  0  0  0  0  0  0  0
  -18.4844    3.5747   25.9439 C   0  0  0  0  0  0  0  0  0  0  0  0
  -19.8503    3.7400   25.6479 C   0  0  0  0  0  0  0  0  0  0  0  0
  -20.3199    3.9953   24.2983 C   0  0  0  0  0  0  0  0  0  0  0  0
  -19.3334    4.0160   23.2722 C   0  0  0  0  0  0  0  0  0  0  0  0
  -17.9666    3.8473   23.5807 C   0  0  0  0  0  0  0  0  0  0  0  0
  -17.5463    3.6373   24.9017 C   0  0  0  0  0  0  0  0  0  0  0  0
  -17.6784    4.6431   27.8779 C   0  0  0  0  0  0  0  0  0  0  0  0
  -18.0563    3.4161   27.2345 O   0  0  0  0  0  0  0  0  0  0  0  0
  -19.6701    4.2243   21.9525 O   0  0  0  0  0  0  0  0  0  0  0  0
  -19.4120    3.1195   21.0561 C   0  0  0  0  0  0  0  0  0  0  0  0
  -20.5634    2.4956   20.6409 F   0  0  0  0  0  0  0  0  0  0  0  0
  -18.6736    3.4777   19.9534 F   0  0  0  0  0  0  0  0  0  0  0  0
  -18.6795    2.1876   21.7455 F   0  0  0  0  0  0  0  0  0  0  0  0
  -25.6120    8.2710   21.3968 O   0  0  0  0  0  0  0  0  0  0  0  0
  -26.8665    8.7824   21.8950 C   0  0  0  0  0  0  0  0  0  0  0  0
  -26.7991   10.3244   22.1218 C   0  0  0  0  0  0  0  0  0  0  0  0
  -25.3595   10.8858   21.9034 C   0  0  0  0  0  0  0  0  0  0  0  0
  -25.3248   11.2900   20.4238 C   0  0  0  0  0  0  0  0  0  0  0  0
  -26.7543   11.8005   20.1953 C   0  0  0  0  0  0  0  0  0  0  0  0
  -27.6286   10.9631   21.0592 N   0  0  0  0  0  0  0  0  0  0  0  0
  -28.7641   11.6570   21.7145 C   0  0  0  0  0  0  0  0  0  0  0  0
  -28.2752   11.9891   23.1355 C   0  0  0  0  0  0  0  0  0  0  0  0
  -27.5243   13.1457   23.1481 F   0  0  0  0  0  0  0  0  0  0  0  0
  -27.4231   10.7567   23.4853 C   0  0  0  0  0  0  0  0  0  0  0  0
 27 28  1  0
 28 21  1  0
 21 22  2  0
 22 23  1  0
 23 24  2  0
 24 29  1  0
 29 30  1  0
 30 31  1  0
 30 32  1  0
 30 33  1  0
 24 25  1  0
 25 26  2  0
 21 26  1  0
 23  1  1  0
  1  2  2  0
  2  3  1  0
  3  4  2  0
  4  5  1  0
  5  6  2  0
  6  7  1  0
  7 34  1  0
 34 35  1  0
 36 35  1  0
 36 37  1  0
 37 38  1  0
 38 39  1  0
 39 40  1  0
 36 40  1  0
 40 41  1  0
 41 42  1  0
 42 43  1  0
 42 44  1  0
 36 44  1  0
  7  8  2  0
  8  9  1  0
  4  9  1  0
  9 10  2  0
  1 10  1  0
 10 11  1  0
  5 12  1  0
 12 13  1  0
 13 14  1  0
 14 15  1  0
 15 16  1  0
 16 17  1  0
 17 18  1  0
 12 18  1  0
 17 19  1  0
 14 19  1  0
 19 20  1  0
M  END
> <minimizedAffinity>
-7.11447

> <CNNscore>
0.2909030318

> <CNNaffinity>
7.1435675621

> <CNN_VS>
2.0780854225

> <CNNaffinity_variance>
0.2557564080

$$$$



 44 50  0  0  0  0  0  0  0  0999 V2000
  -22.8022    4.1701   23.6335 C   0  0  0  0  0  0  0  0  0  0  0  0
  -23.9164    3.3620   23.8811 N   0  0  0  0  0  0  0  0  0  0  0  0
  -25.2755    3.5597   23.5880 C   0  0  0  0  0  0  0  0  0  0  0  0
  -25.6592    4.7878   22.9860 C   0  0  0  0  0  0  0  0  0  0  0  0
  -27.0087    5.1706   22.6840 C   0  0  0  0  0  0  0  0  0  0  0  0
  -27.1964    6.3783   22.0748 N   0  0  0  0  0  0  0  0  0  0  0  0
  -26.1968    7.2254   21.7370 C   0  0  0  0  0  0  0  0  0  0  0  0
  -24.9256    6.8794   22.0294 N   0  0  0  0  0  0  0  0  0  0  0  0
  -24.6178    5.7097   22.6359 C   0  0  0  0  0  0  0  0  0  0  0  0
  -23.2217    5.3977   22.9294 C   0  0  0  0  0  0  0  0  0  0  0  0
  -22.3569    6.3502   22.5010 F   0  0  0  0  0  0  0  0  0  0  0  0
  -28.1653    4.4347   22.9452 N   0  0  0  0  0  0  0  0  0  0  0  0
  -28.2160    3.3873   23.9551 C   0  0  0  0  0  0  0  0  0  0  0  0
  -29.5534    3.3754   24.7552 C   0  0  0  0  0  0  0  0  0  0  0  0
  -29.8519    4.6978   25.4961 C   0  0  0  0  0  0  0  0  0  0  0  0
  -30.5659    5.5617   24.4327 C   0  0  0  0  0  0  0  0  0  0  0  0
  -30.6533    4.6360   23.1928 C   0  0  0  0  0  0  0  0  0  0  0  0
  -29.4153    4.7212   22.2433 C   0  0  0  0  0  0  0  0  0  0  0  0
  -30.6581    3.2857   23.7833 N   0  0  0  0  0  0  0  0  0  0  0  0
  -31.5239    3.1925   24.3202 H   0  0  0  0  0  0  0  0  0  0  0  0
  -19.4552    3.6571   25.5384 C   0  0  0  0  0  0  0  0  0  0  0  0
  -20.8060    3.9797   25.3110 C   0  0  0  0  0  0  0  0  0  0  0  0
  -21.4279    3.8158   24.0098 C   0  0  0  0  0  0  0  0  0  0  0  0
  -20.6179    3.2578   22.9807 C   0  0  0  0  0  0  0  0  0  0  0  0
  -19.2649    2.9364   23.2208 C   0  0  0  0  0  0  0  0  0  0  0  0
  -18.6881    3.1412   24.4821 C   0  0  0  0  0  0  0  0  0  0  0  0
  -17.4325    3.8407   26.7244 C   0  0  0  0  0  0  0  0  0  0  0  0
  -18.8672    3.8959   26.7514 O   0  0  0  0  0  0  0  0  0  0  0  0
  -21.1133    3.0347   21.7145 O   0  0  0  0  0  0  0  0  0  0  0  0
  -21.4343    1.6608   21.3982 C   0  0  0  0  0  0  0  0  0  0  0  0
  -20.3156    0.8772   21.2506 F   0  0  0  0  0  0  0  0  0  0  0  0
  -22.2737    1.0755   22.3158 F   0  0  0  0  0  0  0  0  0  0  0  0
  -22.0881    1.6539   20.1929 F   0  0  0  0  0  0  0  0  0  0  0  0
  -26.4459    8.4172   21.1194 O   0  0  0  0  0  0  0  0  0  0  0  0
  -27.5237    9.1419   21.7490 C   0  0  0  0  0  0  0  0  0  0  0  0
  -27.1473   10.6402   21.9663 C   0  0  0  0  0  0  0  0  0  0  0  0
  -28.3840   11.5017   22.3712 C   0  0  0  0  0  0  0  0  0  0  0  0
  -28.3867   11.4734   23.9052 C   0  0  0  0  0  0  0  0  0  0  0  0
  -26.8865   11.4758   24.2304 C   0  0  0  0  0  0  0  0  0  0  0  0
  -26.2330   10.6989   23.1435 N   0  0  0  0  0  0  0  0  0  0  0  0
  -24.9150   11.1973   22.6801 C   0  0  0  0  0  0  0  0  0  0  0  0
  -25.2132   12.0335   21.4228 C   0  0  0  0  0  0  0  0  0  0  0  0
  -25.6112   13.3113   21.7553 F   0  0  0  0  0  0  0  0  0  0  0  0
  -26.3534   11.2386   20.7633 C   0  0  0  0  0  0  0  0  0  0  0  0
 27 28  1  0
 28 21  1  0
 21 22  2  0
 22 23  1  0
 23 24  2  0
 24 29  1  0
 29 30  1  0
 30 31  1  0
 30 32  1  0
 30 33  1  0
 24 25  1  0
 25 26  2  0
 21 26  1  0
 23  1  1  0
  1  2  2  0
  2  3  1  0
  3  4  2  0
  4  5  1  0
  5  6  2  0
  6  7  1  0
  7 34  1  0
 34 35  1  0
 36 35  1  0
 36 37  1  0
 37 38  1  0
 38 39  1  0
 39 40  1  0
 36 40  1  0
 40 41  1  0
 41 42  1  0
 42 43  1  0
 42 44  1  0
 36 44  1  0
  7  8  2  0
  8  9  1  0
  4  9  1  0
  9 10  2  0
  1 10  1  0
 10 11  1  0
  5 12  1  0
 12 13  1  0
 13 14  1  0
 14 15  1  0
 15 16  1  0
 16 17  1  0
 17 18  1  0
 12 18  1  0
 17 19  1  0
 14 19  1  0
 19 20  1  0
M  END
> <minimizedAffinity>
-9.19604

> <CNNscore>
0.1408700645

> <CNNaffinity>
6.5984306335

> <CNN_VS>
0.9295213223

> <CNNaffinity_variance>
0.2249135226

$$$$



 44 50  0  0  0  0  0  0  0  0999 V2000
  -19.7411    3.9345   22.8877 C   0  0  0  0  0  0  0  0  0  0  0  0
  -20.5121    2.7678   22.8729 N   0  0  0  0  0  0  0  0  0  0  0  0
  -21.9038    2.5893   22.8130 C   0  0  0  0  0  0  0  0  0  0  0  0
  -22.7282    3.7461   22.8180 C   0  0  0  0  0  0  0  0  0  0  0  0
  -24.1631    3.7345   22.8267 C   0  0  0  0  0  0  0  0  0  0  0  0
  -24.7999    4.9422   22.7992 N   0  0  0  0  0  0  0  0  0  0  0  0
  -24.1667    6.1374   22.7590 C   0  0  0  0  0  0  0  0  0  0  0  0
  -22.8173    6.1579   22.7642 N   0  0  0  0  0  0  0  0  0  0  0  0
  -22.0788    5.0246   22.7944 C   0  0  0  0  0  0  0  0  0  0  0  0
  -20.6214    5.1163   22.8036 C   0  0  0  0  0  0  0  0  0  0  0  0
  -20.1630    6.3907   22.7378 F   0  0  0  0  0  0  0  0  0  0  0  0
  -24.9903    2.6112   22.8583 N   0  0  0  0  0  0  0  0  0  0  0  0
  -26.4145    2.6949   23.1487 C   0  0  0  0  0  0  0  0  0  0  0  0
  -27.2731    1.7318   22.2745 C   0  0  0  0  0  0  0  0  0  0  0  0
  -27.1323    1.9719   20.7550 C   0  0  0  0  0  0  0  0  0  0  0  0
  -25.8978    1.1299   20.3627 C   0  0  0  0  0  0  0  0  0  0  0  0
  -25.4726    0.4461   21.6870 C   0  0  0  0  0  0  0  0  0  0  0  0
  -24.4687    1.2821   22.5441 C   0  0  0  0  0  0  0  0  0  0  0  0
  -26.7347    0.3701   22.4442 N   0  0  0  0  0  0  0  0  0  0  0  0
  -27.3558   -0.2641   21.9357 H   0  0  0  0  0  0  0  0  0  0  0  0
  -15.9522    3.5173   22.1361 C   0  0  0  0  0  0  0  0  0  0  0  0
  -17.3448    3.5081   21.9332 C   0  0  0  0  0  0  0  0  0  0  0  0
  -18.2746    3.9517   22.9559 C   0  0  0  0  0  0  0  0  0  0  0  0
  -17.7066    4.4517   24.1616 C   0  0  0  0  0  0  0  0  0  0  0  0
  -16.3084    4.4576   24.3533 C   0  0  0  0  0  0  0  0  0  0  0  0
  -15.4420    3.9885   23.3559 C   0  0  0  0  0  0  0  0  0  0  0  0
  -13.7208    3.0056   21.5968 C   0  0  0  0  0  0  0  0  0  0  0  0
  -15.0980    3.0186   21.1898 O   0  0  0  0  0  0  0  0  0  0  0  0
  -18.4950    4.9225   25.1888 O   0  0  0  0  0  0  0  0  0  0  0  0
  -18.9767    3.9257   26.1190 C   0  0  0  0  0  0  0  0  0  0  0  0
  -18.5435    4.1483   27.4036 F   0  0  0  0  0  0  0  0  0  0  0  0
  -20.3459    3.8046   26.1222 F   0  0  0  0  0  0  0  0  0  0  0  0
  -18.4664    2.7138   25.7302 F   0  0  0  0  0  0  0  0  0  0  0  0
  -24.8586    7.3137   22.7227 O   0  0  0  0  0  0  0  0  0  0  0  0
  -25.5348    7.5089   21.4625 C   0  0  0  0  0  0  0  0  0  0  0  0
  -27.0843    7.4870   21.6422 C   0  0  0  0  0  0  0  0  0  0  0  0
  -27.6084    8.7691   22.3611 C   0  0  0  0  0  0  0  0  0  0  0  0
  -27.9416    9.7402   21.2210 C   0  0  0  0  0  0  0  0  0  0  0  0
  -28.4666    8.7927   20.1334 C   0  0  0  0  0  0  0  0  0  0  0  0
  -27.6871    7.5345   20.2785 N   0  0  0  0  0  0  0  0  0  0  0  0
  -28.4318    6.2706   20.0586 C   0  0  0  0  0  0  0  0  0  0  0  0
  -28.8217    5.7762   21.4629 C   0  0  0  0  0  0  0  0  0  0  0  0
  -29.9637    6.4036   21.9144 F   0  0  0  0  0  0  0  0  0  0  0  0
  -27.5919    6.1665   22.3010 C   0  0  0  0  0  0  0  0  0  0  0  0
 27 28  1  0
 28 21  1  0
 21 22  2  0
 22 23  1  0
 23 24  2  0
 24 29  1  0
 29 30  1  0
 30 31  1  0
 30 32  1  0
 30 33  1  0
 24 25  1  0
 25 26  2  0
 21 26  1  0
 23  1  1  0
  1  2  2  0
  2  3  1  0
  3  4  2  0
  4  5  1  0
  5  6  2  0
  6  7  1  0
  7 34  1  0
 34 35  1  0
 36 35  1  0
 36 37  1  0
 37 38  1  0
 38 39  1  0
 39 40  1  0
 36 40  1  0
 40 41  1  0
 41 42  1  0
 42 43  1  0
 42 44  1  0
 36 44  1  0
  7  8  2  0
  8  9  1  0
  4  9  1  0
  9 10  2  0
  1 10  1  0
 10 11  1  0
  5 12  1  0
 12 13  1  0
 13 14  1  0
 14 15  1  0
 15 16  1  0
 16 17  1  0
 17 18  1  0
 12 18  1  0
 17 19  1  0
 14 19  1  0
 19 20  1  0
M  END
> <minimizedAffinity>
-9.83784

> <CNNscore>
0.1262092739

> <CNNaffinity>
7.0453276634

> <CNN_VS>
0.8891856670

> <CNNaffinity_variance>
0.6947674155

$$$$



 44 50  0  0  0  0  0  0  0  0999 V2000
  -23.3605    5.3883   22.8506 C   0  0  0  0  0  0  0  0  0  0  0  0
  -23.7744    6.6947   22.5715 N   0  0  0  0  0  0  0  0  0  0  0  0
  -25.0560    7.2210   22.3421 C   0  0  0  0  0  0  0  0  0  0  0  0
  -26.1560    6.3224   22.3253 C   0  0  0  0  0  0  0  0  0  0  0  0
  -27.5141    6.6885   22.0418 C   0  0  0  0  0  0  0  0  0  0  0  0
  -28.4548    5.7003   22.0989 N   0  0  0  0  0  0  0  0  0  0  0  0
  -28.1879    4.4104   22.4088 C   0  0  0  0  0  0  0  0  0  0  0  0
  -26.9113    4.0546   22.6637 N   0  0  0  0  0  0  0  0  0  0  0  0
  -25.8940    4.9462   22.6327 C   0  0  0  0  0  0  0  0  0  0  0  0
  -24.5338    4.4949   22.9132 C   0  0  0  0  0  0  0  0  0  0  0  0
  -24.4585    3.1774   23.2247 F   0  0  0  0  0  0  0  0  0  0  0  0
  -27.9863    7.9596   21.7121 N   0  0  0  0  0  0  0  0  0  0  0  0
  -28.9501    8.6753   22.5358 C   0  0  0  0  0  0  0  0  0  0  0  0
  -28.6508   10.2014   22.6386 C   0  0  0  0  0  0  0  0  0  0  0  0
  -27.2602   10.5287   23.2264 C   0  0  0  0  0  0  0  0  0  0  0  0
  -26.3236   10.4893   21.9984 C   0  0  0  0  0  0  0  0  0  0  0  0
  -27.2729   10.1891   20.8107 C   0  0  0  0  0  0  0  0  0  0  0  0
  -27.4877    8.6665   20.5335 C   0  0  0  0  0  0  0  0  0  0  0  0
  -28.5631   10.7357   21.2676 N   0  0  0  0  0  0  0  0  0  0  0  0
  -28.4520   11.7496   21.3467 H   0  0  0  0  0  0  0  0  0  0  0  0
  -19.5669    4.6631   22.4290 C   0  0  0  0  0  0  0  0  0  0  0  0
  -20.8598    5.1327   22.1317 C   0  0  0  0  0  0  0  0  0  0  0  0
  -21.9622    4.9957   23.0661 C   0  0  0  0  0  0  0  0  0  0  0  0
  -21.6605    4.4100   24.3281 C   0  0  0  0  0  0  0  0  0  0  0  0
  -20.3598    3.9442   24.6157 C   0  0  0  0  0  0  0  0  0  0  0  0
  -19.3274    4.0618   23.6745 C   0  0  0  0  0  0  0  0  0  0  0  0
  -17.4453    3.8733   21.7912 C   0  0  0  0  0  0  0  0  0  0  0  0
  -18.5618    4.7290   21.5019 O   0  0  0  0  0  0  0  0  0  0  0  0
  -22.6250    4.2545   25.2997 O   0  0  0  0  0  0  0  0  0  0  0  0
  -23.0410    2.8945   25.5604 C   0  0  0  0  0  0  0  0  0  0  0  0
  -22.5263    2.0011   24.6524 F   0  0  0  0  0  0  0  0  0  0  0  0
  -22.7354    2.4686   26.8310 F   0  0  0  0  0  0  0  0  0  0  0  0
  -24.4059    2.8468   25.4374 F   0  0  0  0  0  0  0  0  0  0  0  0
  -29.1736    3.4673   22.4601 O   0  0  0  0  0  0  0  0  0  0  0  0
  -29.1477    2.7191   23.6942 C   0  0  0  0  0  0  0  0  0  0  0  0
  -30.3558    3.0924   24.6079 C   0  0  0  0  0  0  0  0  0  0  0  0
  -29.9344    4.0314   25.7810 C   0  0  0  0  0  0  0  0  0  0  0  0
  -30.1494    5.4490   25.2350 C   0  0  0  0  0  0  0  0  0  0  0  0
  -31.3965    5.2711   24.3579 C   0  0  0  0  0  0  0  0  0  0  0  0
  -31.2984    3.9028   23.7834 N   0  0  0  0  0  0  0  0  0  0  0  0
  -32.5698    3.1487   23.6604 C   0  0  0  0  0  0  0  0  0  0  0  0
  -32.6289    2.2415   24.9022 C   0  0  0  0  0  0  0  0  0  0  0  0
  -33.1083    2.9263   25.9990 F   0  0  0  0  0  0  0  0  0  0  0  0
  -31.1550    1.8398   25.0850 C   0  0  0  0  0  0  0  0  0  0  0  0
 27 28  1  0
 28 21  1  0
 21 22  2  0
 22 23  1  0
 23 24  2  0
 24 29  1  0
 29 30  1  0
 30 31  1  0
 30 32  1  0
 30 33  1  0
 24 25  1  0
 25 26  2  0
 21 26  1  0
 23  1  1  0
  1  2  2  0
  2  3  1  0
  3  4  2  0
  4  5  1  0
  5  6  2  0
  6  7  1  0
  7 34  1  0
 34 35  1  0
 36 35  1  0
 36 37  1  0
 37 38  1  0
 38 39  1  0
 39 40  1  0
 36 40  1  0
 40 41  1  0
 41 42  1  0
 42 43  1  0
 42 44  1  0
 36 44  1  0
  7  8  2  0
  8  9  1  0
  4  9  1  0
  9 10  2  0
  1 10  1  0
 10 11  1  0
  5 12  1  0
 12 13  1  0
 13 14  1  0
 14 15  1  0
 15 16  1  0
 16 17  1  0
 17 18  1  0
 12 18  1  0
 17 19  1  0
 14 19  1  0
 19 20  1  0
M  END
> <minimizedAffinity>
-6.45779

> <CNNscore>
0.0654397458

> <CNNaffinity>
5.9338932037

> <CNN_VS>
0.3883124590

> <CNNaffinity_variance>
1.0150738955

$$$$



 44 50  0  0  0  0  0  0  0  0999 V2000
  -23.0487    4.5680   23.5146 C   0  0  0  0  0  0  0  0  0  0  0  0
  -23.2796    5.7942   22.8828 N   0  0  0  0  0  0  0  0  0  0  0  0
  -24.4738    6.3888   22.4440 C   0  0  0  0  0  0  0  0  0  0  0  0
  -25.6806    5.6537   22.5886 C   0  0  0  0  0  0  0  0  0  0  0  0
  -26.9699    6.0897   22.1340 C   0  0  0  0  0  0  0  0  0  0  0  0
  -28.0329    5.2695   22.3831 N   0  0  0  0  0  0  0  0  0  0  0  0
  -27.9464    4.0847   23.0310 C   0  0  0  0  0  0  0  0  0  0  0  0
  -26.7357    3.6606   23.4501 N   0  0  0  0  0  0  0  0  0  0  0  0
  -25.6102    4.3861   23.2559 C   0  0  0  0  0  0  0  0  0  0  0  0
  -24.3300    3.8675   23.7296 C   0  0  0  0  0  0  0  0  0  0  0  0
  -24.4370    2.6792   24.3738 F   0  0  0  0  0  0  0  0  0  0  0  0
  -27.2616    7.2756   21.4588 N   0  0  0  0  0  0  0  0  0  0  0  0
  -28.3934    8.1204   21.8124 C   0  0  0  0  0  0  0  0  0  0  0  0
  -28.0677    9.6423   21.7313 C   0  0  0  0  0  0  0  0  0  0  0  0
  -26.9034   10.0833   22.6460 C   0  0  0  0  0  0  0  0  0  0  0  0
  -25.6447    9.8298   21.7867 C   0  0  0  0  0  0  0  0  0  0  0  0
  -26.2074    9.3107   20.4392 C   0  0  0  0  0  0  0  0  0  0  0  0
  -26.4003    7.7612   20.3819 C   0  0  0  0  0  0  0  0  0  0  0  0
  -27.5482    9.9196   20.3800 N   0  0  0  0  0  0  0  0  0  0  0  0
  -27.4187   10.9320   20.3097 H   0  0  0  0  0  0  0  0  0  0  0  0
  -19.7626    3.8101   25.4439 C   0  0  0  0  0  0  0  0  0  0  0  0
  -21.0690    4.2712   25.1963 C   0  0  0  0  0  0  0  0  0  0  0  0
  -21.7210    4.0840   23.9130 C   0  0  0  0  0  0  0  0  0  0  0  0
  -20.9939    3.3588   22.9271 C   0  0  0  0  0  0  0  0  0  0  0  0
  -19.6850    2.8997   23.1873 C   0  0  0  0  0  0  0  0  0  0  0  0
  -19.0736    3.1296   24.4278 C   0  0  0  0  0  0  0  0  0  0  0  0
  -17.7161    3.8603   26.6019 C   0  0  0  0  0  0  0  0  0  0  0  0
  -19.1367    4.0688   26.6335 O   0  0  0  0  0  0  0  0  0  0  0  0
  -21.5267    3.1008   21.6830 O   0  0  0  0  0  0  0  0  0  0  0  0
  -21.8179    1.7132   21.3994 C   0  0  0  0  0  0  0  0  0  0  0  0
  -20.6873    0.9340   21.3557 F   0  0  0  0  0  0  0  0  0  0  0  0
  -22.7125    1.1561   22.2818 F   0  0  0  0  0  0  0  0  0  0  0  0
  -22.3910    1.6550   20.1550 F   0  0  0  0  0  0  0  0  0  0  0  0
  -29.0479    3.3114   23.2599 O   0  0  0  0  0  0  0  0  0  0  0  0
  -30.2265    4.1046   23.5152 C   0  0  0  0  0  0  0  0  0  0  0  0
  -31.0013    3.5815   24.7642 C   0  0  0  0  0  0  0  0  0  0  0  0
  -30.1070    3.5646   26.0430 C   0  0  0  0  0  0  0  0  0  0  0  0
  -30.3473    4.9309   26.6983 C   0  0  0  0  0  0  0  0  0  0  0  0
  -31.8312    5.1784   26.3931 C   0  0  0  0  0  0  0  0  0  0  0  0
  -32.0798    4.5689   25.0594 N   0  0  0  0  0  0  0  0  0  0  0  0
  -33.3873    3.8921   24.8793 C   0  0  0  0  0  0  0  0  0  0  0  0
  -33.1105    2.3973   25.1195 C   0  0  0  0  0  0  0  0  0  0  0  0
  -33.1097    2.0993   26.4660 F   0  0  0  0  0  0  0  0  0  0  0  0
  -31.7140    2.2188   24.4990 C   0  0  0  0  0  0  0  0  0  0  0  0
 27 28  1  0
 28 21  1  0
 21 22  2  0
 22 23  1  0
 23 24  2  0
 24 29  1  0
 29 30  1  0
 30 31  1  0
 30 32  1  0
 30 33  1  0
 24 25  1  0
 25 26  2  0
 21 26  1  0
 23  1  1  0
  1  2  2  0
  2  3  1  0
  3  4  2  0
  4  5  1  0
  5  6  2  0
  6  7  1  0
  7 34  1  0
 34 35  1  0
 36 35  1  0
 36 37  1  0
 37 38  1  0
 38 39  1  0
 39 40  1  0
 36 40  1  0
 40 41  1  0
 41 42  1  0
 42 43  1  0
 42 44  1  0
 36 44  1  0
  7  8  2  0
  8  9  1  0
  4  9  1  0
  9 10  2  0
  1 10  1  0
 10 11  1  0
  5 12  1  0
 12 13  1  0
 13 14  1  0
 14 15  1  0
 15 16  1  0
 16 17  1  0
 17 18  1  0
 12 18  1  0
 17 19  1  0
 14 19  1  0
 19 20  1  0
M  END
> <minimizedAffinity>
-9.31573

> <CNNscore>
0.0649316162

> <CNNaffinity>
5.9797310829

> <CNN_VS>
0.3882735968

> <CNNaffinity_variance>
0.8236593604

$$$$



 44 50  0  0  0  0  0  0  0  0999 V2000
  -23.0315    4.5891   23.5167 C   0  0  0  0  0  0  0  0  0  0  0  0
  -23.2471    5.8216   22.8918 N   0  0  0  0  0  0  0  0  0  0  0  0
  -24.4318    6.4258   22.4405 C   0  0  0  0  0  0  0  0  0  0  0  0
  -25.6442    5.6957   22.5613 C   0  0  0  0  0  0  0  0  0  0  0  0
  -26.9245    6.1419   22.0914 C   0  0  0  0  0  0  0  0  0  0  0  0
  -27.9950    5.3250   22.3180 N   0  0  0  0  0  0  0  0  0  0  0  0
  -27.9239    4.1344   22.9572 C   0  0  0  0  0  0  0  0  0  0  0  0
  -26.7216    3.7008   23.3905 N   0  0  0  0  0  0  0  0  0  0  0  0
  -25.5899    4.4222   23.2189 C   0  0  0  0  0  0  0  0  0  0  0  0
  -24.3193    3.8933   23.7070 C   0  0  0  0  0  0  0  0  0  0  0  0
  -24.4416    2.7003   24.3397 F   0  0  0  0  0  0  0  0  0  0  0  0
  -27.2004    7.3348   21.4219 N   0  0  0  0  0  0  0  0  0  0  0  0
  -28.3402    8.1761   21.7578 C   0  0  0  0  0  0  0  0  0  0  0  0
  -28.0127    9.6988   21.7001 C   0  0  0  0  0  0  0  0  0  0  0  0
  -26.8701   10.1300   22.6462 C   0  0  0  0  0  0  0  0  0  0  0  0
  -25.5917    9.8851   21.8139 C   0  0  0  0  0  0  0  0  0  0  0  0
  -26.1228    9.3801   20.4483 C   0  0  0  0  0  0  0  0  0  0  0  0
  -26.3142    7.8313   20.3705 C   0  0  0  0  0  0  0  0  0  0  0  0
  -27.4619    9.9899   20.3642 N   0  0  0  0  0  0  0  0  0  0  0  0
  -27.3308   11.0029   20.3074 H   0  0  0  0  0  0  0  0  0  0  0  0
  -19.7716    3.8112   25.4818 C   0  0  0  0  0  0  0  0  0  0  0  0
  -21.0712    4.2828   25.2192 C   0  0  0  0  0  0  0  0  0  0  0  0
  -21.7123    4.0952   23.9304 C   0  0  0  0  0  0  0  0  0  0  0  0
  -20.9821    3.3586   22.9553 C   0  0  0  0  0  0  0  0  0  0  0  0
  -19.6800    2.8890   23.2306 C   0  0  0  0  0  0  0  0  0  0  0  0
  -19.0788    3.1195   24.4759 C   0  0  0  0  0  0  0  0  0  0  0  0
  -17.7250    3.9450   26.6331 C   0  0  0  0  0  0  0  0  0  0  0  0
  -19.1550    4.0701   26.6763 O   0  0  0  0  0  0  0  0  0  0  0  0
  -21.5050    3.0993   21.7072 O   0  0  0  0  0  0  0  0  0  0  0  0
  -21.7710    1.7086   21.4137 C   0  0  0  0  0  0  0  0  0  0  0  0
  -20.6220    0.9678   21.2787 F   0  0  0  0  0  0  0  0  0  0  0  0
  -22.5868    1.1057   22.3412 F   0  0  0  0  0  0  0  0  0  0  0  0
  -22.4238    1.6559   20.2090 F   0  0  0  0  0  0  0  0  0  0  0  0
  -29.0325    3.3649   23.1635 O   0  0  0  0  0  0  0  0  0  0  0  0
  -29.3824    3.2777   24.5612 C   0  0  0  0  0  0  0  0  0  0  0  0
  -30.5637    4.2352   24.9097 C   0  0  0  0  0  0  0  0  0  0  0  0
  -31.7039    4.1693   23.8462 C   0  0  0  0  0  0  0  0  0  0  0  0
  -32.6630    3.0958   24.3767 C   0  0  0  0  0  0  0  0  0  0  0  0
  -32.5811    3.3117   25.8943 C   0  0  0  0  0  0  0  0  0  0  0  0
  -31.1816    3.7322   26.1708 N   0  0  0  0  0  0  0  0  0  0  0  0
  -31.0008    4.7669   27.2182 C   0  0  0  0  0  0  0  0  0  0  0  0
  -30.8785    6.1001   26.4590 C   0  0  0  0  0  0  0  0  0  0  0  0
  -32.1196    6.6058   26.1339 F   0  0  0  0  0  0  0  0  0  0  0  0
  -30.0869    5.6915   25.2046 C   0  0  0  0  0  0  0  0  0  0  0  0
 27 28  1  0
 28 21  1  0
 21 22  2  0
 22 23  1  0
 23 24  2  0
 24 29  1  0
 29 30  1  0
 30 31  1  0
 30 32  1  0
 30 33  1  0
 24 25  1  0
 25 26  2  0
 21 26  1  0
 23  1  1  0
  1  2  2  0
  2  3  1  0
  3  4  2  0
  4  5  1  0
  5  6  2  0
  6  7  1  0
  7 34  1  0
 34 35  1  0
 36 35  1  0
 36 37  1  0
 37 38  1  0
 38 39  1  0
 39 40  1  0
 36 40  1  0
 40 41  1  0
 41 42  1  0
 42 43  1  0
 42 44  1  0
 36 44  1  0
  7  8  2  0
  8  9  1  0
  4  9  1  0
  9 10  2  0
  1 10  1  0
 10 11  1  0
  5 12  1  0
 12 13  1  0
 13 14  1  0
 14 15  1  0
 15 16  1  0
 16 17  1  0
 17 18  1  0
 12 18  1  0
 17 19  1  0
 14 19  1  0
 19 20  1  0
M  END
> <minimizedAffinity>
-9.44718

> <CNNscore>
0.0608231537

> <CNNaffinity>
6.0355949402

> <CNN_VS>
0.3671039045

> <CNNaffinity_variance>
0.7554631233

$$$$
