
  Mrv1551110212511193D          

 75 82  0  0  1  0            999 V2000
    5.7112    2.1462   12.8150 O   0  0  0  0  0  0  0  0  0  0  0  0
    6.8007    2.0146   12.0151 C   0  0  0  0  0  0  0  0  0  0  0  0
    8.0433    1.7320   12.5929 C   0  0  0  0  0  0  0  0  0  0  0  0
    9.1901    1.5578   11.7875 C   0  0  0  0  0  0  0  0  0  0  0  0
   10.4145    1.2796   12.4324 C   0  0  0  0  0  0  0  0  0  0  0  0
   11.5748    1.0531   11.6874 C   0  0  0  0  0  0  0  0  0  0  0  0
   11.5283    1.0814   10.2882 C   0  0  0  0  0  0  0  0  0  0  0  0
   12.6576    0.8432    9.6581 F   0  0  0  0  0  0  0  0  0  0  0  0
   10.3061    1.3472    9.6157 C   0  0  0  0  0  0  0  0  0  0  0  0
   10.3663    1.2384    8.3104 C   0  0  0  0  0  0  0  0  0  0  0  0
   10.4821    1.1080    7.1285 C   0  0  0  0  0  0  0  0  0  0  0  0
    9.1131    1.6522   10.3573 C   0  0  0  0  0  0  0  0  0  0  0  0
    7.8448    2.0286    9.7917 C   0  0  0  0  0  0  0  0  0  0  0  0
    6.7075    2.1735   10.6238 C   0  0  0  0  0  0  0  0  0  0  0  0
    7.6570    2.3170    8.4138 C   0  0  0  0  0  0  0  0  0  0  0  0
    8.3229    3.3832    7.8969 N   0  0  0  0  0  0  0  0  0  0  0  0
    8.3267    3.6945    6.5768 C   0  0  0  0  0  0  0  0  0  0  0  0
    7.6298    2.8885    5.6477 C   0  0  0  0  0  0  0  0  0  0  0  0
    7.6849    3.0337    4.2297 C   0  0  0  0  0  0  0  0  0  0  0  0
    6.8311    2.2769    3.4833 N   0  0  0  0  0  0  0  0  0  0  0  0
    5.9788    1.3630    4.0085 C   0  0  0  0  0  0  0  0  0  0  0  0
    5.1628    0.6273    3.1939 O   0  0  0  0  0  0  0  0  0  0  0  0
    3.8129    1.1322    3.0956 C   0  0  1  0  0  0  0  0  0  0  0  0
    2.9676    0.2309    2.1346 C   0  0  1  0  0  0  0  0  0  0  0  0
    2.7029   -1.1763    2.7613 C   0  0  2  0  0  0  0  0  0  0  0  0
    1.3108   -1.0625    3.3992 C   0  0  2  0  0  0  0  0  0  0  0  0
    0.5788   -0.1241    2.4357 C   0  0  2  0  0  0  0  0  0  0  0  0
    1.6121    0.8372    1.9659 N   0  0  2  0  0  0  0  0  0  0  0  0
    1.4632    1.2763    0.5556 C   0  0  2  0  0  0  0  0  0  0  0  0
    2.3957    0.3624   -0.2567 C   0  0  2  0  0  0  0  0  0  0  0  0
    1.7920   -0.8436   -0.5392 F   0  0  0  0  0  0  0  0  0  0  0  0
    3.5866    0.1782    0.6992 C   0  0  1  0  0  0  0  0  0  0  0  0
    6.0073    1.1411    5.3452 N   0  0  0  0  0  0  0  0  0  0  0  0
    6.8103    1.8518    6.1768 C   0  0  0  0  0  0  0  0  0  0  0  0
    6.8436    1.5421    7.5554 C   0  0  0  0  0  0  0  0  0  0  0  0
    6.1568    0.5293    8.0191 F   0  0  0  0  0  0  0  0  0  0  0  0
    8.5857    3.8337    3.5446 N   0  0  0  0  0  0  0  0  0  0  0  0
   10.0012    3.8585    3.8926 C   0  0  1  0  0  0  0  0  0  0  0  0
   10.9132    3.7301    2.6313 C   0  0  1  0  0  0  0  0  0  0  0  0
   10.6555    2.4547    1.7955 C   0  0  1  0  0  0  0  0  0  0  0  0
    9.4978    2.8605    0.8540 C   0  0  1  0  0  0  0  0  0  0  0  0
    9.2316    4.3491    1.1989 C   0  0  1  0  0  0  0  0  0  0  0  0
    8.1963    4.5702    2.3507 C   0  0  2  0  0  0  0  0  0  0  0  0
   10.5422    4.8080    1.6971 N   0  0  2  0  0  0  0  0  0  0  0  0
    4.9400    1.8981   12.2614 H   0  0  0  0  0  0  0  0  0  0  0  0
    8.0981    1.6433   13.6129 H   0  0  0  0  0  0  0  0  0  0  0  0
   10.4767    1.2348   13.4534 H   0  0  0  0  0  0  0  0  0  0  0  0
   12.4555    0.8556   12.1696 H   0  0  0  0  0  0  0  0  0  0  0  0
   10.5735    1.0090    6.2162 H   0  0  0  0  0  0  0  0  0  0  0  0
    5.7938    2.4116   10.2243 H   0  0  0  0  0  0  0  0  0  0  0  0
    8.8555    4.5167    6.2862 H   0  0  0  0  0  0  0  0  0  0  0  0
    3.3407    1.1503    4.0835 H   0  0  0  0  0  0  0  0  0  0  0  0
    3.8227    2.1557    2.7066 H   0  0  0  0  0  0  0  0  0  0  0  0
    3.4486   -1.4595    3.5096 H   0  0  0  0  0  0  0  0  0  0  0  0
    2.6778   -1.9591    1.9965 H   0  0  0  0  0  0  0  0  0  0  0  0
    1.3771   -0.6086    4.3918 H   0  0  0  0  0  0  0  0  0  0  0  0
    0.8143   -2.0338    3.4760 H   0  0  0  0  0  0  0  0  0  0  0  0
   -0.2283    0.4086    2.9431 H   0  0  0  0  0  0  0  0  0  0  0  0
    0.1482   -0.7167    1.6200 H   0  0  0  0  0  0  0  0  0  0  0  0
    1.8022    2.3135    0.4807 H   0  0  0  0  0  0  0  0  0  0  0  0
    0.4319    1.2366    0.1897 H   0  0  0  0  0  0  0  0  0  0  0  0
    2.6970    0.8323   -1.1966 H   0  0  0  0  0  0  0  0  0  0  0  0
    4.2852    1.0060    0.5384 H   0  0  0  0  0  0  0  0  0  0  0  0
    4.1280   -0.7514    0.5019 H   0  0  0  0  0  0  0  0  0  0  0  0
   10.2303    4.8121    4.3768 H   0  0  0  0  0  0  0  0  0  0  0  0
   10.2688    3.0553    4.5847 H   0  0  0  0  0  0  0  0  0  0  0  0
   11.9655    3.8097    2.9168 H   0  0  0  0  0  0  0  0  0  0  0  0
   11.5483    2.2051    1.2122 H   0  0  0  0  0  0  0  0  0  0  0  0
   10.3949    1.5961    2.4221 H   0  0  0  0  0  0  0  0  0  0  0  0
    9.8130    2.7645   -0.1898 H   0  0  0  0  0  0  0  0  0  0  0  0
    8.6139    2.2372    1.0118 H   0  0  0  0  0  0  0  0  0  0  0  0
    8.9399    4.9173    0.3111 H   0  0  0  0  0  0  0  0  0  0  0  0
    8.1687    5.6356    2.5987 H   0  0  0  0  0  0  0  0  0  0  0  0
    7.1995    4.3048    1.9850 H   0  0  0  0  0  0  0  0  0  0  0  0
   11.1952    4.7644    0.9130 H   0  0  0  0  0  0  0  0  0  0  0  0
  1  2  1  0  0  0  0
  2  3  4  0  0  0  0
  3  4  4  0  0  0  0
  4  5  4  0  0  0  0
  5  6  4  0  0  0  0
  6  7  4  0  0  0  0
  7  8  1  0  0  0  0
  7  9  4  0  0  0  0
  9 10  1  0  0  0  0
 10 11  3  0  0  0  0
  9 12  4  0  0  0  0
  4 12  4  0  0  0  0
 12 13  4  0  0  0  0
 13 14  4  0  0  0  0
  2 14  4  0  0  0  0
 13 15  1  0  0  0  0
 15 16  4  0  0  0  0
 16 17  4  0  0  0  0
 17 18  4  0  0  0  0
 18 19  4  0  0  0  0
 19 20  4  0  0  0  0
 20 21  4  0  0  0  0
 21 22  1  0  0  0  0
 22 23  1  0  0  0  0
 24 23  1  0  0  0  0
 24 25  1  0  0  0  0
 25 26  1  0  0  0  0
 26 27  1  0  0  0  0
 27 28  1  0  0  0  0
 24 28  1  0  0  0  0
 28 29  1  0  0  0  0
 29 30  1  0  0  0  0
 30 31  1  0  0  0  0
 30 32  1  0  0  0  0
 24 32  1  0  0  0  0
 21 33  4  0  0  0  0
 33 34  4  0  0  0  0
 18 34  4  0  0  0  0
 34 35  4  0  0  0  0
 15 35  4  0  0  0  0
 35 36  1  0  0  0  0
 19 37  1  0  0  0  0
 37 38  1  0  0  0  0
 38 39  1  0  0  0  0
 39 40  1  0  0  0  0
 40 41  1  0  0  0  0
 41 42  1  0  0  0  0
 42 43  1  0  0  0  0
 37 43  1  0  0  0  0
 42 44  1  0  0  0  0
 39 44  1  0  0  0  0
  1 45  1  0  0  0  0
  3 46  1  0  0  0  0
  5 47  1  0  0  0  0
  6 48  1  0  0  0  0
 11 49  1  0  0  0  0
 14 50  1  0  0  0  0
 17 51  1  0  0  0  0
 23 52  1  0  0  0  0
 23 53  1  0  0  0  0
 25 54  1  0  0  0  0
 25 55  1  0  0  0  0
 26 56  1  0  0  0  0
 26 57  1  0  0  0  0
 27 58  1  0  0  0  0
 27 59  1  0  0  0  0
 29 60  1  0  0  0  0
 29 61  1  0  0  0  0
 30 62  1  0  0  0  0
 32 63  1  0  0  0  0
 32 64  1  0  0  0  0
 38 65  1  0  0  0  0
 38 66  1  0  0  0  0
 39 67  1  0  0  0  0
 40 68  1  0  0  0  0
 40 69  1  0  0  0  0
 41 70  1  0  0  0  0
 41 71  1  0  0  0  0
 42 72  1  0  0  0  0
 43 73  1  0  0  0  0
 43 74  1  0  0  0  0
 44 75  1  0  0  0  0
M  END
$$$$
